@<TRIPOS>MOLECULE
/home/robert/research/impropers_analysis/pndit/test_xyzs/Dimethyl_Naphthalene_Dicarboximide_Phi_15_Theta_230_Thiophene.xyz
 39 43 0 0 0
SMALL
GASTEIGER

@<TRIPOS>ATOM
      1 C          -0.1959   -6.7414    0.1663 C.ar    1  UNL1       -0.0483
      2 C          -1.1960   -6.1556    1.0057 C.ar    1  UNL1       -0.0483
      3 C           0.6349   -5.7915   -0.5302 C.ar    1  UNL1        0.0458
      4 C          -1.4096   -4.8038    1.1846 C.ar    1  UNL1        0.0458
      5 H          -1.8685   -6.8215    1.5702 H       1  UNL1        0.0625
      6 C           0.4110   -4.3786   -0.3433 C.ar    1  UNL1        0.0078
      7 C          -0.6084   -3.8380    0.5117 C.ar    1  UNL1        0.0084
      8 C           1.2112   -3.4131   -1.0154 C.ar    1  UNL1        0.0464
      9 C          -0.8306   -2.4265    0.6972 C.ar    1  UNL1        0.0540
     10 C           0.9999   -2.0593   -0.8390 C.ar    1  UNL1       -0.0400
     11 C           0.0000   -1.4782    0.0000 C.ar    1  UNL1        0.0022
     12 H           1.6730   -1.3948   -1.4043 H       1  UNL1        0.0632
     13 C           1.7411   -6.1880   -1.4561 C.2     1  UNL1        0.2535
     14 C           2.3072   -3.7982   -1.9349 C.2     1  UNL1        0.2535
     15 N           2.4948   -5.1700   -2.0901 N.am    1  UNL1       -0.2372
     16 C          -2.5085   -4.4250    2.1067 C.2     1  UNL1        0.2535
     17 C          -1.9369   -2.0366    1.6245 C.2     1  UNL1        0.2541
     18 N          -2.6909   -3.0492    2.2585 N.am    1  UNL1       -0.2372
     19 O           2.0427   -7.3531   -1.7054 O.2     1  UNL1       -0.2695
     20 O           3.0138   -2.9869   -2.5291 O.2     1  UNL1       -0.2695
     21 O          -3.2069   -5.2489    2.6937 O.2     1  UNL1       -0.2695
     22 O          -2.2541   -0.8788    1.8888 O.2     1  UNL1       -0.2695
     23 C           3.5775   -5.5638   -2.9973 C.3     1  UNL1        0.0115
     24 H           3.6129   -6.6641   -3.0255 H       1  UNL1        0.0434
     25 H           4.5368   -5.1471   -2.6351 H       1  UNL1        0.0434
     26 H           3.3878   -5.1488   -4.0057 H       1  UNL1        0.0434
     27 C          -3.7569   -2.5875    3.1523 C.3     1  UNL1        0.0115
     28 H          -4.2485   -3.4833    3.5662 H       1  UNL1        0.0434
     29 H          -4.4788   -1.9650    2.5904 H       1  UNL1        0.0434
     30 H          -3.3296   -1.9629    3.9597 H       1  UNL1        0.0434
     31 H          -0.0532   -7.8223    0.0470 H       1  UNL1        0.0625
     32 C           0.0000    0.0000    0.0000 C.ar    1  UNL1        0.0201
     33 S           0.2051    0.7662    1.5805 S.2     1  UNL1       -0.0966
     34 C           0.6289    2.3481    0.9049 C.ar    1  UNL1       -0.0237
     35 C           0.2581    0.9640   -0.9854 C.ar    1  UNL1       -0.0469
     36 C           0.5997    2.2393   -0.4935 C.ar    1  UNL1       -0.0541
     37 H           0.1972    0.7364   -2.0599 H       1  UNL1        0.0629
     38 H           0.8277    3.0902   -1.1526 H       1  UNL1        0.0623
     39 H           0.8568    3.1988    1.5560 H       1  UNL1        0.0693
@<TRIPOS>BOND
     1    26    23    1
     2    24    23    1
     3    23    25    1
     4    23    15    1
     5    20    14    2
     6    15    14   am
     7    15    13   am
     8    37    35    1
     9    14     8    1
    10    19    13    2
    11    13     3    1
    12    12    10    1
    13    38    36    1
    14     8    10   ar
    15     8     6   ar
    16    35    36   ar
    17    35    32   ar
    18    10    11   ar
    19     3     6   ar
    20     3     1   ar
    21    36    34   ar
    22     6     7   ar
    23    11    32    1
    24    11     9   ar
    25    32    33   ar
    26    31     1    1
    27     1     2   ar
    28     7     9   ar
    29     7     4   ar
    30     9    17    1
    31    34    39    1
    32    34    33   ar
    33     2     4   ar
    34     2     5    1
    35     4    16    1
    36    17    22    2
    37    17    18   am
    38    16    18   am
    39    16    21    2
    40    18    27    1
    41    29    27    1
    42    27    28    1
    43    27    30    1
