@<TRIPOS>MOLECULE
/home/robert/research/impropers_analysis/pndit/test_xyzs/Dimethyl_Naphthalene_Dicarboximide_Phi_40_Theta_300_Thiophene.xyz
 39 43 0 0 0
SMALL
GASTEIGER

@<TRIPOS>ATOM
      1 C          -0.2232   -6.7414   -0.1272 C.ar    1  UNL1       -0.0483
      2 C          -1.3541   -6.1556   -0.7799 C.ar    1  UNL1       -0.0483
      3 C           0.7154   -5.7915    0.4153 C.ar    1  UNL1        0.0458
      4 C          -1.5953   -4.8038   -0.9194 C.ar    1  UNL1        0.0458
      5 H          -2.1146   -6.8215   -1.2188 H       1  UNL1        0.0625
      6 C           0.4631   -4.3786    0.2688 C.ar    1  UNL1        0.0078
      7 C          -0.6889   -3.8380   -0.3967 C.ar    1  UNL1        0.0081
      8 C           1.3684   -3.4131    0.7908 C.ar    1  UNL1        0.0461
      9 C          -0.9392   -2.4265   -0.5420 C.ar    1  UNL1        0.0506
     10 C           1.1304   -2.0593    0.6527 C.ar    1  UNL1       -0.0434
     11 C           0.0000   -1.4782    0.0000 C.ar    1  UNL1       -0.0122
     12 H           1.8918   -1.3948    1.0918 H       1  UNL1        0.0629
     13 C           1.9637   -6.1880    1.1381 C.2     1  UNL1        0.2535
     14 C           2.6074   -3.7982    1.5062 C.2     1  UNL1        0.2535
     15 N           2.8173   -5.1700    1.6294 N.am    1  UNL1       -0.2372
     16 C          -2.8376   -4.4250   -1.6366 C.2     1  UNL1        0.2535
     17 C          -2.1890   -2.0366   -1.2645 C.2     1  UNL1        0.2538
     18 N          -3.0426   -3.0492   -1.7562 N.am    1  UNL1       -0.2372
     19 O           2.3012   -7.3531    1.3363 O.2     1  UNL1       -0.2695
     20 O           3.4074   -2.9869    1.9671 O.2     1  UNL1       -0.2695
     21 O          -3.6280   -5.2489   -2.0922 O.2     1  UNL1       -0.2695
     22 O          -2.5458   -0.8788   -1.4722 O.2     1  UNL1       -0.2695
     23 C           4.0402   -5.5638    2.3366 C.3     1  UNL1        0.0115
     24 H           4.0787   -6.6641    2.3602 H       1  UNL1        0.0434
     25 H           4.0279   -5.1471    3.3620 H       1  UNL1        0.0434
     26 H           4.9228   -5.1488    1.8134 H       1  UNL1        0.0434
     27 C          -4.2472   -2.5875   -2.4521 C.3     1  UNL1        0.0115
     28 H          -4.8042   -3.4833   -2.7725 H       1  UNL1        0.0434
     29 H          -3.9660   -1.9650   -3.3227 H       1  UNL1        0.0434
     30 H          -4.8597   -1.9629   -1.7745 H       1  UNL1        0.0434
     31 H          -0.0624   -7.8223   -0.0339 H       1  UNL1        0.0625
     32 C           0.0000    0.0000    0.0000 C.3     1  UNL1        0.0829
     33 S           0.5097    0.6077    1.5805 S.3     1  UNL1       -0.1342
     34 C           1.5624    1.8623    0.9049 C.3     1  UNL1        0.0399
     35 C           0.6414    0.7646   -0.9854 C.2     1  UNL1       -0.0648
     36 C           1.4899    1.7760   -0.4935 C.2     1  UNL1       -0.0721
     37 H           0.4899    0.5841   -2.0599 H       1  UNL1        0.0587
     38 H           2.0561    2.4509   -1.1526 H       1  UNL1        0.0581
     39 H           2.1284    2.5370    1.5560 H       1  UNL1        0.0469
@<TRIPOS>BOND
     1    29    27    1
     2    28    27    1
     3    27    30    1
     4    27    18    1
     5    21    16    2
     6    37    35    1
     7    18    16   am
     8    18    17   am
     9    16     4    1
    10    22    17    2
    11    17     9    1
    12     5     2    1
    13    38    36    1
    14    35    36    2
    15    35    32    1
    16     4     2   ar
    17     4     7   ar
    18     2     1   ar
    19     9     7   ar
    20     9    11   ar
    21    36    34    1
    22     7     6   ar
    23     1    31    1
    24     1     3   ar
    25    32    11    1
    26    32    33    1
    27    11    10   ar
    28     6     3   ar
    29     6     8   ar
    30     3    13    1
    31    10     8   ar
    32    10    12    1
    33     8    14    1
    34    34    39    1
    35    34    33    1
    36    13    19    2
    37    13    15   am
    38    14    15   am
    39    14    20    2
    40    15    23    1
    41    26    23    1
    42    23    24    1
    43    23    25    1
