@<TRIPOS>MOLECULE
/home/robert/research/impropers_analysis/pndit/test_xyzs/Dimethyl_Naphthalene_Dicarboximide_Phi_40_Theta_350_Thiophene.xyz
 39 43 0 0 0
SMALL
GASTEIGER

@<TRIPOS>ATOM
      1 C          -0.0461   -6.7414   -0.2528 C.ar    1  UNL1       -0.0483
      2 C          -0.2729   -6.1556   -1.5387 C.ar    1  UNL1       -0.0483
      3 C           0.1417   -5.7915    0.8150 C.ar    1  UNL1        0.0458
      4 C          -0.3211   -4.8038   -1.8130 C.ar    1  UNL1        0.0458
      5 H          -0.4256   -6.8215   -2.4033 H       1  UNL1        0.0625
      6 C           0.0918   -4.3786    0.5276 C.ar    1  UNL1        0.0078
      7 C          -0.1389   -3.8380   -0.7828 C.ar    1  UNL1        0.0081
      8 C           0.2738   -3.4131    1.5566 C.ar    1  UNL1        0.0461
      9 C          -0.1885   -2.4265   -1.0679 C.ar    1  UNL1        0.0506
     10 C           0.2266   -2.0593    1.2854 C.ar    1  UNL1       -0.0434
     11 C           0.0000   -1.4782    0.0000 C.ar    1  UNL1       -0.0122
     12 H           0.3797   -1.3948    2.1510 H       1  UNL1        0.0629
     13 C           0.3904   -6.1880    2.2359 C.2     1  UNL1        0.2535
     14 C           0.5221   -3.7982    2.9655 C.2     1  UNL1        0.2535
     15 N           0.5627   -5.1700    3.2056 N.am    1  UNL1       -0.2372
     16 C          -0.5702   -4.4250   -3.2258 C.2     1  UNL1        0.2535
     17 C          -0.4384   -2.0366   -2.4896 C.2     1  UNL1        0.2538
     18 N          -0.6104   -3.0492   -3.4597 N.am    1  UNL1       -0.2372
     19 O           0.4556   -7.3531    2.6218 O.2     1  UNL1       -0.2695
     20 O           0.6834   -2.9869    3.8746 O.2     1  UNL1       -0.2695
     21 O          -0.7294   -5.2489   -4.1241 O.2     1  UNL1       -0.2695
     22 O          -0.5087   -0.8788   -2.8965 O.2     1  UNL1       -0.2695
     23 C           0.8070   -5.5638    4.5969 C.3     1  UNL1        0.0115
     24 H           0.8137   -6.6641    4.6416 H       1  UNL1        0.0434
     25 H           0.0137   -5.1471    5.2466 H       1  UNL1        0.0434
     26 H           1.7752   -5.1488    4.9367 H       1  UNL1        0.0434
     27 C          -0.8516   -2.5875   -4.8297 C.3     1  UNL1        0.0115
     28 H          -0.9642   -3.4833   -5.4624 H       1  UNL1        0.0434
     29 H          -0.0040   -1.9650   -5.1739 H       1  UNL1        0.0434
     30 H          -1.7644   -1.9629   -4.8634 H       1  UNL1        0.0434
     31 H          -0.0141   -7.8223   -0.0696 H       1  UNL1        0.0625
     32 C           0.0000    0.0000    0.0000 C.3     1  UNL1        0.0829
     33 S           0.5097    0.6077    1.5805 S.3     1  UNL1       -0.1342
     34 C           1.5624    1.8623    0.9049 C.3     1  UNL1        0.0399
     35 C           0.6414    0.7646   -0.9854 C.2     1  UNL1       -0.0648
     36 C           1.4899    1.7760   -0.4935 C.2     1  UNL1       -0.0721
     37 H           0.4899    0.5841   -2.0599 H       1  UNL1        0.0587
     38 H           2.0561    2.4509   -1.1526 H       1  UNL1        0.0581
     39 H           2.1284    2.5370    1.5560 H       1  UNL1        0.0469
@<TRIPOS>BOND
     1    28    27    1
     2    29    27    1
     3    30    27    1
     4    27    18    1
     5    21    16    2
     6    18    16   am
     7    18    17   am
     8    16     4    1
     9    22    17    2
    10    17     9    1
    11     5     2    1
    12    37    35    1
    13     4     2   ar
    14     4     7   ar
    15     2     1   ar
    16    38    36    1
    17     9     7   ar
    18     9    11   ar
    19    35    36    2
    20    35    32    1
    21     7     6   ar
    22    36    34    1
    23     1    31    1
    24     1     3   ar
    25    11    32    1
    26    11    10   ar
    27    32    33    1
    28     6     3   ar
    29     6     8   ar
    30     3    13    1
    31    34    39    1
    32    34    33    1
    33    10     8   ar
    34    10    12    1
    35     8    14    1
    36    13    19    2
    37    13    15   am
    38    14    15   am
    39    14    20    2
    40    15    23    1
    41    23    24    1
    42    23    26    1
    43    23    25    1
