@<TRIPOS>MOLECULE
/home/robert/research/impropers_analysis/pndit/test_xyzs/Dimethyl_Naphthalene_Dicarboximide_Phi_5_Theta_30_Thiophene.xyz
 39 43 0 0 0
SMALL
GASTEIGER

@<TRIPOS>ATOM
      1 C           0.1272   -6.7414   -0.2232 C.ar    1  UNL1       -0.0483
      2 C           0.7799   -6.1556   -1.3541 C.ar    1  UNL1       -0.0483
      3 C          -0.4153   -5.7915    0.7154 C.ar    1  UNL1        0.0458
      4 C           0.9194   -4.8038   -1.5953 C.ar    1  UNL1        0.0458
      5 H           1.2188   -6.8215   -2.1146 H       1  UNL1        0.0625
      6 C          -0.2688   -4.3786    0.4631 C.ar    1  UNL1        0.0078
      7 C           0.3967   -3.8380   -0.6889 C.ar    1  UNL1        0.0084
      8 C          -0.7908   -3.4131    1.3684 C.ar    1  UNL1        0.0464
      9 C           0.5420   -2.4265   -0.9392 C.ar    1  UNL1        0.0540
     10 C          -0.6527   -2.0593    1.1304 C.ar    1  UNL1       -0.0400
     11 C           0.0000   -1.4782    0.0000 C.ar    1  UNL1        0.0022
     12 H          -1.0918   -1.3948    1.8918 H       1  UNL1        0.0632
     13 C          -1.1381   -6.1880    1.9637 C.2     1  UNL1        0.2535
     14 C          -1.5062   -3.7982    2.6074 C.2     1  UNL1        0.2535
     15 N          -1.6294   -5.1700    2.8173 N.am    1  UNL1       -0.2372
     16 C           1.6366   -4.4250   -2.8376 C.2     1  UNL1        0.2535
     17 C           1.2645   -2.0366   -2.1890 C.2     1  UNL1        0.2541
     18 N           1.7562   -3.0492   -3.0426 N.am    1  UNL1       -0.2372
     19 O          -1.3363   -7.3531    2.3012 O.2     1  UNL1       -0.2695
     20 O          -1.9671   -2.9869    3.4074 O.2     1  UNL1       -0.2695
     21 O           2.0922   -5.2489   -3.6280 O.2     1  UNL1       -0.2695
     22 O           1.4722   -0.8788   -2.5458 O.2     1  UNL1       -0.2695
     23 C          -2.3366   -5.5638    4.0402 C.3     1  UNL1        0.0115
     24 H          -2.3602   -6.6641    4.0787 H       1  UNL1        0.0434
     25 H          -3.3620   -5.1471    4.0279 H       1  UNL1        0.0434
     26 H          -1.8134   -5.1488    4.9228 H       1  UNL1        0.0434
     27 C           2.4521   -2.5875   -4.2472 C.3     1  UNL1        0.0115
     28 H           2.7725   -3.4833   -4.8042 H       1  UNL1        0.0434
     29 H           3.3227   -1.9650   -3.9660 H       1  UNL1        0.0434
     30 H           1.7745   -1.9629   -4.8597 H       1  UNL1        0.0434
     31 H           0.0339   -7.8223   -0.0624 H       1  UNL1        0.0625
     32 C           0.0000    0.0000    0.0000 C.ar    1  UNL1        0.0201
     33 S           0.0689    0.7902    1.5805 S.2     1  UNL1       -0.0966
     34 C           0.2116    2.4217    0.9049 C.ar    1  UNL1       -0.0237
     35 C           0.0868    0.9942   -0.9854 C.ar    1  UNL1       -0.0469
     36 C           0.2018    2.3094   -0.4935 C.ar    1  UNL1       -0.0541
     37 H           0.0663    0.7595   -2.0599 H       1  UNL1        0.0629
     38 H           0.2785    3.1870   -1.1526 H       1  UNL1        0.0623
     39 H           0.2883    3.2990    1.5560 H       1  UNL1        0.0693
@<TRIPOS>BOND
     1    30    27    1
     2    28    27    1
     3    27    29    1
     4    27    18    1
     5    21    16    2
     6    18    16   am
     7    18    17   am
     8    16     4    1
     9    22    17    2
    10    17     9    1
    11     5     2    1
    12    37    35    1
    13     4     2   ar
    14     4     7   ar
    15     2     1   ar
    16    38    36    1
    17    35    36   ar
    18    35    32   ar
    19     9     7   ar
    20     9    11   ar
    21     7     6   ar
    22    36    34   ar
    23     1    31    1
    24     1     3   ar
    25    11    32    1
    26    11    10   ar
    27    32    33   ar
    28     6     3   ar
    29     6     8   ar
    30     3    13    1
    31    34    39    1
    32    34    33   ar
    33    10     8   ar
    34    10    12    1
    35     8    14    1
    36    13    19    2
    37    13    15   am
    38    14    15   am
    39    14    20    2
    40    15    23    1
    41    25    23    1
    42    23    24    1
    43    23    26    1
