@<TRIPOS>MOLECULE
/home/robert/research/impropers_analysis/pndit/test_xyzs/Dimethyl_Naphthalene_Dicarboximide_Phi_20_Theta_20_Thiophene.xyz
 39 43 0 0 0
SMALL
GASTEIGER

@<TRIPOS>ATOM
      1 C           0.0865   -6.7414   -0.2419 C.ar    1  UNL1       -0.0483
      2 C           0.5330   -6.1556   -1.4690 C.ar    1  UNL1       -0.0483
      3 C          -0.2847   -5.7915    0.7767 C.ar    1  UNL1        0.0458
      4 C           0.6285   -4.8038   -1.7307 C.ar    1  UNL1        0.0458
      5 H           0.8331   -6.8215   -2.2941 H       1  UNL1        0.0625
      6 C          -0.1843   -4.3786    0.5028 C.ar    1  UNL1        0.0078
      7 C           0.2711   -3.8380   -0.7474 C.ar    1  UNL1        0.0084
      8 C          -0.5412   -3.4131    1.4850 C.ar    1  UNL1        0.0464
      9 C           0.3707   -2.4265   -1.0190 C.ar    1  UNL1        0.0540
     10 C          -0.4465   -2.0593    1.2265 C.ar    1  UNL1       -0.0400
     11 C          -0.0000   -1.4782   -0.0000 C.ar    1  UNL1        0.0022
     12 H          -0.7467   -1.3948    2.0527 H       1  UNL1        0.0632
     13 C          -0.7798   -6.1880    2.1315 C.2     1  UNL1        0.2535
     14 C          -1.0306   -3.7982    2.8293 C.2     1  UNL1        0.2535
     15 N          -1.1155   -5.1700    3.0575 N.am    1  UNL1       -0.2372
     16 C           1.1190   -4.4250   -3.0787 C.2     1  UNL1        0.2535
     17 C           0.8652   -2.0366   -2.3753 C.2     1  UNL1        0.2541
     18 N           1.2012   -3.0492   -3.3014 N.am    1  UNL1       -0.2372
     19 O          -0.9164   -7.3531    2.4983 O.2     1  UNL1       -0.2695
     20 O          -1.3455   -2.9869    3.6972 O.2     1  UNL1       -0.2695
     21 O           1.4304   -5.2489   -3.9362 O.2     1  UNL1       -0.2695
     22 O           1.0077   -0.8788   -2.7628 O.2     1  UNL1       -0.2695
     23 C          -1.5996   -5.5638    4.3845 C.3     1  UNL1        0.0115
     24 H          -1.6161   -6.6641    4.4266 H       1  UNL1        0.0434
     25 H          -2.6115   -5.1471    4.5505 H       1  UNL1        0.0434
     26 H          -0.9310   -5.1488    5.1629 H       1  UNL1        0.0434
     27 C           1.6774   -2.5875   -4.6085 C.3     1  UNL1        0.0115
     28 H           1.8962   -3.4833   -5.2127 H       1  UNL1        0.0434
     29 H           2.5835   -1.9650   -4.4827 H       1  UNL1        0.0434
     30 H           0.9037   -1.9629   -5.0940 H       1  UNL1        0.0434
     31 H           0.0226   -7.8223   -0.0673 H       1  UNL1        0.0625
     32 C           0.0000    0.0000    0.0000 C.ar    1  UNL1        0.0201
     33 S           0.2711    0.7454    1.5805 S.2     1  UNL1       -0.0966
     34 C           0.8312    2.2844    0.9049 C.ar    1  UNL1       -0.0237
     35 C           0.3412    0.9379   -0.9854 C.ar    1  UNL1       -0.0469
     36 C           0.7926    2.1785   -0.4935 C.ar    1  UNL1       -0.0541
     37 H           0.2606    0.7164   -2.0599 H       1  UNL1        0.0629
     38 H           1.0939    3.0063   -1.1526 H       1  UNL1        0.0623
     39 H           1.1323    3.1120    1.5560 H       1  UNL1        0.0693
@<TRIPOS>BOND
     1    28    27    1
     2    30    27    1
     3    27    29    1
     4    27    18    1
     5    21    16    2
     6    18    16   am
     7    18    17   am
     8    16     4    1
     9    22    17    2
    10    17     9    1
    11     5     2    1
    12    37    35    1
    13     4     2   ar
    14     4     7   ar
    15     2     1   ar
    16    38    36    1
    17     9     7   ar
    18     9    11   ar
    19    35    36   ar
    20    35    32   ar
    21     7     6   ar
    22    36    34   ar
    23     1    31    1
    24     1     3   ar
    25    11    32    1
    26    11    10   ar
    27    32    33   ar
    28     6     3   ar
    29     6     8   ar
    30     3    13    1
    31    34    39    1
    32    34    33   ar
    33    10     8   ar
    34    10    12    1
    35     8    14    1
    36    13    19    2
    37    13    15   am
    38    14    15   am
    39    14    20    2
    40    15    23    1
    41    23    24    1
    42    23    25    1
    43    23    26    1
