@<TRIPOS>MOLECULE
/home/robert/research/impropers_analysis/pndit/test_xyzs/Dimethyl_Naphthalene_Dicarboximide_Phi_0_Theta_70_Thiophene.xyz
 39 43 0 0 0
SMALL
GASTEIGER

@<TRIPOS>ATOM
      1 C           0.2409   -6.7414   -0.0893 C.ar    1  UNL1       -0.0483
      2 C           1.4679   -6.1556   -0.5360 C.ar    1  UNL1       -0.0483
      3 C          -0.7780   -5.7915    0.2811 C.ar    1  UNL1        0.0458
      4 C           1.7297   -4.8038   -0.6310 C.ar    1  UNL1        0.0458
      5 H           2.2929   -6.8215   -0.8365 H       1  UNL1        0.0625
      6 C          -0.5036   -4.3786    0.1820 C.ar    1  UNL1        0.0078
      7 C           0.7468   -3.8380   -0.2727 C.ar    1  UNL1        0.0084
      8 C          -1.4854   -3.4131    0.5400 C.ar    1  UNL1        0.0464
      9 C           1.0189   -2.4265   -0.3711 C.ar    1  UNL1        0.0540
     10 C          -1.2266   -2.0593    0.4464 C.ar    1  UNL1       -0.0400
     11 C          -0.0000   -1.4782   -0.0000 C.ar    1  UNL1        0.0022
     12 H          -2.0524   -1.3948    0.7474 H       1  UNL1        0.0632
     13 C          -2.1341   -6.1880    0.7727 C.2     1  UNL1        0.2535
     14 C          -2.8298   -3.7982    1.0292 C.2     1  UNL1        0.2535
     15 N          -3.0592   -5.1700    1.1108 N.am    1  UNL1       -0.2372
     16 C           3.0777   -4.4250   -1.1217 C.2     1  UNL1        0.2535
     17 C           2.3757   -2.0366   -0.8641 C.2     1  UNL1        0.2541
     18 N           3.3011   -3.0492   -1.2019 N.am    1  UNL1       -0.2372
     19 O          -2.5028   -7.3531    0.9039 O.2     1  UNL1       -0.2695
     20 O          -3.6971   -2.9869    1.3458 O.2     1  UNL1       -0.2695
     21 O           3.9348   -5.2489   -1.4344 O.2     1  UNL1       -0.2695
     22 O           2.7642   -0.8788   -1.0039 O.2     1  UNL1       -0.2695
     23 C          -4.3869   -5.5638    1.5930 C.3     1  UNL1        0.0115
     24 H          -4.4298   -6.6641    1.6074 H       1  UNL1        0.0434
     25 H          -5.1645   -5.1471    0.9245 H       1  UNL1        0.0434
     26 H          -4.5535   -5.1488    2.6054 H       1  UNL1        0.0434
     27 C           4.6085   -2.5875   -1.6773 C.3     1  UNL1        0.0115
     28 H           5.2120   -3.4833   -1.8981 H       1  UNL1        0.0434
     29 H           5.0946   -1.9650   -0.9023 H       1  UNL1        0.0434
     30 H           4.4831   -1.9629   -2.5821 H       1  UNL1        0.0434
     31 H           0.0661   -7.8223   -0.0260 H       1  UNL1        0.0625
     32 C           0.0000    0.0000    0.0000 C.ar    1  UNL1        0.0201
     33 S          -0.0002    0.7932    1.5805 S.2     1  UNL1       -0.0966
     34 C          -0.0002    2.4309    0.9049 C.ar    1  UNL1       -0.0237
     35 C          -0.0002    0.9980   -0.9854 C.ar    1  UNL1       -0.0469
     36 C          -0.0003    2.3182   -0.4935 C.ar    1  UNL1       -0.0541
     37 H          -0.0001    0.7623   -2.0599 H       1  UNL1        0.0629
     38 H          -0.0003    3.1992   -1.1526 H       1  UNL1        0.0623
     39 H          -0.0003    3.3116    1.5560 H       1  UNL1        0.0693
@<TRIPOS>BOND
     1    30    27    1
     2    37    35    1
     3    28    27    1
     4    27    18    1
     5    27    29    1
     6    21    16    2
     7    18    16   am
     8    18    17   am
     9    38    36    1
    10    16     4    1
    11    22    17    2
    12    35    36   ar
    13    35    32   ar
    14    17     9    1
    15     5     2    1
    16     4     2   ar
    17     4     7   ar
    18     2     1   ar
    19    36    34   ar
    20     9     7   ar
    21     9    11   ar
    22     7     6   ar
    23     1    31    1
    24     1     3   ar
    25    11    32    1
    26    11    10   ar
    27    32    33   ar
    28     6     3   ar
    29     6     8   ar
    30     3    13    1
    31    10     8   ar
    32    10    12    1
    33     8    14    1
    34    13    19    2
    35    13    15   am
    36    34    39    1
    37    34    33   ar
    38    25    23    1
    39    14    15   am
    40    14    20    2
    41    15    23    1
    42    23    24    1
    43    23    26    1
