@<TRIPOS>MOLECULE
/home/robert/research/impropers_analysis/pndit/test_xyzs/Dimethyl_Naphthalene_Dicarboximide_Phi_50_Theta_60_Thiophene.xyz
 39 43 0 0 0
SMALL
GASTEIGER

@<TRIPOS>ATOM
      1 C           0.2218   -6.7414   -0.1297 C.ar    1  UNL1       -0.0483
      2 C           1.3525   -6.1556   -0.7827 C.ar    1  UNL1       -0.0483
      3 C          -0.7173   -5.7915    0.4119 C.ar    1  UNL1        0.0458
      4 C           1.5939   -4.8038   -0.9218 C.ar    1  UNL1        0.0458
      5 H           2.1128   -6.8215   -1.2219 H       1  UNL1        0.0625
      6 C          -0.4644   -4.3786    0.2667 C.ar    1  UNL1        0.0078
      7 C           0.6881   -3.8380   -0.3983 C.ar    1  UNL1        0.0081
      8 C          -1.3691   -3.4131    0.7897 C.ar    1  UNL1        0.0461
      9 C           0.9390   -2.4265   -0.5423 C.ar    1  UNL1        0.0506
     10 C          -1.1304   -2.0593    0.6526 C.ar    1  UNL1       -0.0434
     11 C          -0.0000   -1.4782   -0.0000 C.ar    1  UNL1       -0.0122
     12 H          -1.8914   -1.3948    1.0925 H       1  UNL1        0.0629
     13 C          -1.9675   -6.1880    1.1316 C.2     1  UNL1        0.2535
     14 C          -2.6081   -3.7982    1.5049 C.2     1  UNL1        0.2535
     15 N          -2.8198   -5.1700    1.6252 N.am    1  UNL1       -0.2372
     16 C           2.8362   -4.4250   -1.6391 C.2     1  UNL1        0.2535
     17 C           2.1896   -2.0366   -1.2635 C.2     1  UNL1        0.2538
     18 N           3.0422   -3.0492   -1.7569 N.am    1  UNL1       -0.2372
     19 O          -2.3078   -7.3531    1.3248 O.2     1  UNL1       -0.2695
     20 O          -3.4072   -2.9869    1.9674 O.2     1  UNL1       -0.2695
     21 O           3.6259   -5.2489   -2.0959 O.2     1  UNL1       -0.2695
     22 O           2.5478   -0.8788   -1.4687 O.2     1  UNL1       -0.2695
     23 C          -4.0437   -5.5638    2.3306 C.3     1  UNL1        0.0115
     24 H          -4.0834   -6.6641    2.3522 H       1  UNL1        0.0434
     25 H          -4.9255   -5.1471    1.8073 H       1  UNL1        0.0434
     26 H          -4.0319   -5.1488    3.3566 H       1  UNL1        0.0434
     27 C           4.2472   -2.5875   -2.4521 C.3     1  UNL1        0.0115
     28 H           4.8032   -3.4833   -2.7743 H       1  UNL1        0.0434
     29 H           4.8605   -1.9650   -1.7733 H       1  UNL1        0.0434
     30 H           3.9666   -1.9629   -3.3214 H       1  UNL1        0.0434
     31 H           0.0606   -7.8223   -0.0370 H       1  UNL1        0.0625
     32 C           0.0000    0.0000    0.0000 C.3     1  UNL1        0.0829
     33 S           0.6075    0.5100    1.5805 S.3     1  UNL1       -0.1342
     34 C           1.8620    1.5627    0.9049 C.3     1  UNL1        0.0399
     35 C           0.7644    0.6416   -0.9854 C.2     1  UNL1       -0.0648
     36 C           1.7757    1.4903   -0.4935 C.2     1  UNL1       -0.0721
     37 H           0.5839    0.4901   -2.0599 H       1  UNL1        0.0587
     38 H           2.4505    2.0566   -1.1526 H       1  UNL1        0.0581
     39 H           2.5366    2.1289    1.5560 H       1  UNL1        0.0469
@<TRIPOS>BOND
     1    30    27    1
     2    28    27    1
     3    27    29    1
     4    27    18    1
     5    21    16    2
     6    37    35    1
     7    18    16   am
     8    18    17   am
     9    16     4    1
    10    22    17    2
    11    17     9    1
    12     5     2    1
    13    38    36    1
    14    35    36    2
    15    35    32    1
    16     4     2   ar
    17     4     7   ar
    18     2     1   ar
    19     9     7   ar
    20     9    11   ar
    21    36    34    1
    22     7     6   ar
    23     1    31    1
    24     1     3   ar
    25    32    11    1
    26    32    33    1
    27    11    10   ar
    28     6     3   ar
    29     6     8   ar
    30     3    13    1
    31    10     8   ar
    32    10    12    1
    33     8    14    1
    34    34    39    1
    35    34    33    1
    36    13    19    2
    37    13    15   am
    38    14    15   am
    39    14    20    2
    40    15    23    1
    41    25    23    1
    42    23    24    1
    43    23    26    1
