@<TRIPOS>MOLECULE
/home/robert/research/impropers_analysis/pndit/test_xyzs/Dimethyl_Naphthalene_Dicarboximide_Phi_15_Theta_40_Thiophene.xyz
 39 43 0 0 0
SMALL
GASTEIGER

@<TRIPOS>ATOM
      1 C           0.1640   -6.7414   -0.1978 C.ar    1  UNL1       -0.0483
      2 C           1.0032   -6.1556   -1.1981 C.ar    1  UNL1       -0.0483
      3 C          -0.5332   -5.7915    0.6324 C.ar    1  UNL1        0.0458
      4 C           1.1825   -4.8038   -1.4114 C.ar    1  UNL1        0.0458
      5 H           1.5675   -6.8215   -1.8708 H       1  UNL1        0.0625
      6 C          -0.3451   -4.3786    0.4094 C.ar    1  UNL1        0.0078
      7 C           0.5103   -3.8380   -0.6096 C.ar    1  UNL1        0.0084
      8 C          -1.0164   -3.4131    1.2103 C.ar    1  UNL1        0.0464
      9 C           0.6969   -2.4265   -0.8308 C.ar    1  UNL1        0.0540
     10 C          -0.8390   -2.0593    0.9999 C.ar    1  UNL1       -0.0400
     11 C           0.0000   -1.4782    0.0000 C.ar    1  UNL1        0.0022
     12 H          -1.4037   -1.3948    1.6735 H       1  UNL1        0.0632
     13 C          -1.4618   -6.1880    1.7363 C.2     1  UNL1        0.2535
     14 C          -1.9361   -3.7982    2.3062 C.2     1  UNL1        0.2535
     15 N          -2.0939   -5.1700    2.4916 N.am    1  UNL1       -0.2372
     16 C           2.1045   -4.4250   -2.5103 C.2     1  UNL1        0.2535
     17 C           1.6254   -2.0366   -1.9362 C.2     1  UNL1        0.2541
     18 N           2.2579   -3.0492   -2.6915 N.am    1  UNL1       -0.2372
     19 O          -1.7156   -7.3531    2.0342 O.2     1  UNL1       -0.2695
     20 O          -2.5289   -2.9869    3.0140 O.2     1  UNL1       -0.2695
     21 O           2.6904   -5.2489   -3.2096 O.2     1  UNL1       -0.2695
     22 O           1.8919   -0.8788   -2.2515 O.2     1  UNL1       -0.2695
     23 C          -3.0027   -5.5638    3.5730 C.3     1  UNL1        0.0115
     24 H          -3.0327   -6.6641    3.6069 H       1  UNL1        0.0434
     25 H          -4.0103   -5.1471    3.3829 H       1  UNL1        0.0434
     26 H          -2.6407   -5.1488    4.5331 H       1  UNL1        0.0434
     27 C           3.1524   -2.5875   -3.7568 C.3     1  UNL1        0.0115
     28 H           3.5647   -3.4833   -4.2498 H       1  UNL1        0.0434
     29 H           3.9609   -1.9650   -3.3288 H       1  UNL1        0.0434
     30 H           2.5914   -1.9629   -4.4777 H       1  UNL1        0.0434
     31 H           0.0442   -7.8223   -0.0555 H       1  UNL1        0.0625
     32 C           0.0000    0.0000    0.0000 C.ar    1  UNL1        0.0201
     33 S           0.2051    0.7662    1.5805 S.2     1  UNL1       -0.0966
     34 C           0.6289    2.3481    0.9049 C.ar    1  UNL1       -0.0237
     35 C           0.2581    0.9640   -0.9854 C.ar    1  UNL1       -0.0469
     36 C           0.5997    2.2393   -0.4935 C.ar    1  UNL1       -0.0541
     37 H           0.1972    0.7364   -2.0599 H       1  UNL1        0.0629
     38 H           0.8277    3.0902   -1.1526 H       1  UNL1        0.0623
     39 H           0.8568    3.1988    1.5560 H       1  UNL1        0.0693
@<TRIPOS>BOND
     1    30    27    1
     2    28    27    1
     3    27    29    1
     4    27    18    1
     5    21    16    2
     6    18    16   am
     7    18    17   am
     8    16     4    1
     9    22    17    2
    10    37    35    1
    11    17     9    1
    12     5     2    1
    13     4     2   ar
    14     4     7   ar
    15     2     1   ar
    16    38    36    1
    17    35    36   ar
    18    35    32   ar
    19     9     7   ar
    20     9    11   ar
    21     7     6   ar
    22    36    34   ar
    23     1    31    1
    24     1     3   ar
    25    11    32    1
    26    11    10   ar
    27    32    33   ar
    28     6     3   ar
    29     6     8   ar
    30     3    13    1
    31    34    39    1
    32    34    33   ar
    33    10     8   ar
    34    10    12    1
    35     8    14    1
    36    13    19    2
    37    13    15   am
    38    14    15   am
    39    14    20    2
    40    15    23    1
    41    25    23    1
    42    23    24    1
    43    23    26    1
