@<TRIPOS>MOLECULE
/home/robert/research/impropers_analysis/pndit/test_xyzs/Dimethyl_Naphthalene_Dicarboximide_Phi_60_Theta_90_Thiophene.xyz
 39 43 0 0 0
SMALL
GASTEIGER

@<TRIPOS>ATOM
      1 C           0.2569   -6.7414   -0.0015 C.ar    1  UNL1       -0.0483
      2 C           1.5627   -6.1556   -0.0016 C.ar    1  UNL1       -0.0483
      3 C          -0.8272   -5.7915   -0.0019 C.ar    1  UNL1        0.0458
      4 C           1.8413   -4.8038   -0.0014 C.ar    1  UNL1        0.0458
      5 H           2.4407   -6.8215   -0.0018 H       1  UNL1        0.0625
      6 C          -0.5355   -4.3786   -0.0012 C.ar    1  UNL1        0.0078
      7 C           0.7950   -3.8380   -0.0009 C.ar    1  UNL1        0.0081
      8 C          -1.5805   -3.4131   -0.0007 C.ar    1  UNL1        0.0461
      9 C           1.0844   -2.4265   -0.0002 C.ar    1  UNL1        0.0506
     10 C          -1.3053   -2.0593   -0.0000 C.ar    1  UNL1       -0.0434
     11 C          -0.0000   -1.4782   -0.0000 C.ar    1  UNL1       -0.0122
     12 H          -2.1843   -1.3948    0.0004 H       1  UNL1        0.0629
     13 C          -2.2697   -6.1880   -0.0038 C.2     1  UNL1        0.2535
     14 C          -3.0112   -3.7982   -0.0008 C.2     1  UNL1        0.2535
     15 N          -3.2546   -5.1700   -0.0025 N.am    1  UNL1       -0.2372
     16 C           3.2758   -4.4250   -0.0014 C.2     1  UNL1        0.2535
     17 C           2.5280   -2.0366    0.0006 C.2     1  UNL1        0.2538
     18 N           3.5131   -3.0492   -0.0004 N.am    1  UNL1       -0.2372
     19 O          -2.6610   -7.3531   -0.0066 O.2     1  UNL1       -0.2695
     20 O          -3.9344   -2.9869    0.0002 O.2     1  UNL1       -0.2695
     21 O           4.1881   -5.2489   -0.0022 O.2     1  UNL1       -0.2695
     22 O           2.9408   -0.8788    0.0020 O.2     1  UNL1       -0.2695
     23 C          -4.6672   -5.5638   -0.0035 C.3     1  UNL1        0.0115
     24 H          -4.7124   -6.6641   -0.0047 H       1  UNL1        0.0434
     25 H          -5.1692   -5.1471   -0.8976 H       1  UNL1        0.0434
     26 H          -5.1700   -5.1488    0.8909 H       1  UNL1        0.0434
     27 C           4.9042   -2.5875    0.0000 C.3     1  UNL1        0.0115
     28 H           5.5468   -3.4833   -0.0010 H       1  UNL1        0.0434
     29 H           5.0960   -1.9650    0.8945 H       1  UNL1        0.0434
     30 H           5.0959   -1.9629   -0.8931 H       1  UNL1        0.0434
     31 H           0.0710   -7.8223   -0.0018 H       1  UNL1        0.0625
     32 C           0.0000    0.0000    0.0000 C.3     1  UNL1        0.0829
     33 S           0.6868    0.3968    1.5805 S.3     1  UNL1       -0.1342
     34 C           2.1051    1.2156    0.9049 C.3     1  UNL1        0.0399
     35 C           0.8642    0.4991   -0.9854 C.2     1  UNL1       -0.0648
     36 C           2.0075    1.1593   -0.4935 C.2     1  UNL1       -0.0721
     37 H           0.6601    0.3813   -2.0599 H       1  UNL1        0.0587
     38 H           2.7704    1.5999   -1.1526 H       1  UNL1        0.0581
     39 H           2.8677    1.6561    1.5560 H       1  UNL1        0.0469
@<TRIPOS>BOND
     1    37    35    1
     2    38    36    1
     3    35    36    2
     4    35    32    1
     5    25    23    1
     6    30    27    1
     7    36    34    1
     8    19    13    2
     9    24    23    1
    10    13    15   am
    11    13     3    1
    12    23    15    1
    13    23    26    1
    14    15    14   am
    15    21    16    2
    16     3     1   ar
    17     3     6   ar
    18    31     1    1
    19     5     2    1
    20     2     1   ar
    21     2     4   ar
    22    16     4    1
    23    16    18   am
    24     4     7   ar
    25     6     7   ar
    26     6     8   ar
    27    28    27    1
    28     7     9   ar
    29    14     8    1
    30    14    20    2
    31     8    10   ar
    32    18    27    1
    33    18    17   am
    34     9    11   ar
    35     9    17    1
    36    10    11   ar
    37    10    12    1
    38    11    32    1
    39    32    33    1
    40    27    29    1
    41    17    22    2
    42    34    39    1
    43    34    33    1
