@<TRIPOS>MOLECULE
/home/robert/research/impropers_analysis/pndit/test_xyzs/Dimethyl_Naphthalene_Dicarboximide_Phi_60_Theta_310_Thiophene.xyz
 39 43 0 0 0
SMALL
GASTEIGER

@<TRIPOS>ATOM
      1 C          -0.1978   -6.7414   -0.1640 C.ar    1  UNL1       -0.0483
      2 C          -1.1981   -6.1556   -1.0032 C.ar    1  UNL1       -0.0483
      3 C           0.6324   -5.7915    0.5332 C.ar    1  UNL1        0.0458
      4 C          -1.4114   -4.8038   -1.1825 C.ar    1  UNL1        0.0458
      5 H          -1.8708   -6.8215   -1.5675 H       1  UNL1        0.0625
      6 C           0.4094   -4.3786    0.3451 C.ar    1  UNL1        0.0078
      7 C          -0.6096   -3.8380   -0.5103 C.ar    1  UNL1        0.0081
      8 C           1.2103   -3.4131    1.0164 C.ar    1  UNL1        0.0461
      9 C          -0.8308   -2.4265   -0.6969 C.ar    1  UNL1        0.0506
     10 C           0.9999   -2.0593    0.8390 C.ar    1  UNL1       -0.0434
     11 C          -0.0000   -1.4782   -0.0000 C.ar    1  UNL1       -0.0122
     12 H           1.6735   -1.3948    1.4037 H       1  UNL1        0.0629
     13 C           1.7363   -6.1880    1.4618 C.2     1  UNL1        0.2535
     14 C           2.3062   -3.7982    1.9361 C.2     1  UNL1        0.2535
     15 N           2.4916   -5.1700    2.0939 N.am    1  UNL1       -0.2372
     16 C          -2.5103   -4.4250   -2.1045 C.2     1  UNL1        0.2535
     17 C          -1.9362   -2.0366   -1.6254 C.2     1  UNL1        0.2538
     18 N          -2.6915   -3.0492   -2.2579 N.am    1  UNL1       -0.2372
     19 O           2.0342   -7.3531    1.7156 O.2     1  UNL1       -0.2695
     20 O           3.0140   -2.9869    2.5289 O.2     1  UNL1       -0.2695
     21 O          -3.2096   -5.2489   -2.6904 O.2     1  UNL1       -0.2695
     22 O          -2.2515   -0.8788   -1.8919 O.2     1  UNL1       -0.2695
     23 C           3.5730   -5.5638    3.0027 C.3     1  UNL1        0.0115
     24 H           3.6069   -6.6641    3.0327 H       1  UNL1        0.0434
     25 H           3.3829   -5.1471    4.0103 H       1  UNL1        0.0434
     26 H           4.5331   -5.1488    2.6407 H       1  UNL1        0.0434
     27 C          -3.7568   -2.5875   -3.1524 C.3     1  UNL1        0.0115
     28 H          -4.2498   -3.4833   -3.5647 H       1  UNL1        0.0434
     29 H          -3.3288   -1.9650   -3.9609 H       1  UNL1        0.0434
     30 H          -4.4777   -1.9629   -2.5914 H       1  UNL1        0.0434
     31 H          -0.0555   -7.8223   -0.0442 H       1  UNL1        0.0625
     32 C           0.0000    0.0000    0.0000 C.3     1  UNL1        0.0829
     33 S           0.6868    0.3968    1.5805 S.3     1  UNL1       -0.1342
     34 C           2.1051    1.2156    0.9049 C.3     1  UNL1        0.0399
     35 C           0.8642    0.4991   -0.9854 C.2     1  UNL1       -0.0648
     36 C           2.0075    1.1593   -0.4935 C.2     1  UNL1       -0.0721
     37 H           0.6601    0.3813   -2.0599 H       1  UNL1        0.0587
     38 H           2.7704    1.5999   -1.1526 H       1  UNL1        0.0581
     39 H           2.8677    1.6561    1.5560 H       1  UNL1        0.0469
@<TRIPOS>BOND
     1    29    27    1
     2    28    27    1
     3    27    30    1
     4    27    18    1
     5    21    16    2
     6    18    16   am
     7    18    17   am
     8    16     4    1
     9    37    35    1
    10    22    17    2
    11    17     9    1
    12     5     2    1
    13     4     2   ar
    14     4     7   ar
    15    38    36    1
    16     2     1   ar
    17    35    36    2
    18    35    32    1
    19     9     7   ar
    20     9    11   ar
    21     7     6   ar
    22    36    34    1
    23     1    31    1
    24     1     3   ar
    25    11    32    1
    26    11    10   ar
    27    32    33    1
    28     6     3   ar
    29     6     8   ar
    30     3    13    1
    31    10     8   ar
    32    10    12    1
    33    34    39    1
    34    34    33    1
    35     8    14    1
    36    13    19    2
    37    13    15   am
    38    14    15   am
    39    14    20    2
    40    15    23    1
    41    26    23    1
    42    23    24    1
    43    23    25    1
