@<TRIPOS>MOLECULE
/home/robert/research/impropers_analysis/pndit/test_xyzs/Dimethyl_Naphthalene_Dicarboximide_Phi_0_Theta_0_Thiophene.xyz
 39 43 0 0 0
SMALL
GASTEIGER

@<TRIPOS>ATOM
      1 C          -6.4524    1.9696   -0.0028 C.ar    1  UNL1       -0.0483
      2 C          -6.3276    0.5439   -0.0036 C.ar    1  UNL1       -0.0483
      3 C          -5.1993    2.6819   -0.0025 C.ar    1  UNL1        0.0458
      4 C          -5.1420   -0.1628   -0.0033 C.ar    1  UNL1        0.0458
      5 H          -7.2447   -0.0670   -0.0044 H       1  UNL1        0.0625
      6 C          -3.9604    1.9427   -0.0017 C.ar    1  UNL1        0.0078
      7 C          -3.8864    0.5085   -0.0020 C.ar    1  UNL1        0.0084
      8 C          -2.7054    2.6130   -0.0004 C.ar    1  UNL1        0.0464
      9 C          -2.6479   -0.2280   -0.0012 C.ar    1  UNL1        0.0540
     10 C          -1.5170    1.9088    0.0003 C.ar    1  UNL1       -0.0400
     11 C          -1.3964    0.4851   -0.0003 C.ar    1  UNL1        0.0022
     12 H          -0.6007    2.5210    0.0013 H       1  UNL1        0.0632
     13 C          -5.1005    4.1747   -0.0036 C.2     1  UNL1        0.2535
     14 C          -2.5997    4.0908    0.0002 C.2     1  UNL1        0.2535
     15 N          -3.8156    4.7710   -0.0016 N.am    1  UNL1       -0.2372
     16 C          -5.2549   -1.6422   -0.0041 C.2     1  UNL1        0.2535
     17 C          -2.7534   -1.7196   -0.0012 C.2     1  UNL1        0.2541
     18 N          -4.0332   -2.3179   -0.0029 N.am    1  UNL1       -0.2372
     19 O          -6.0727    4.9267   -0.0065 O.2     1  UNL1       -0.2695
     20 O          -1.5303    4.6967    0.0018 O.2     1  UNL1       -0.2695
     21 O          -6.3326   -2.2336   -0.0054 O.2     1  UNL1       -0.2695
     22 O          -1.7952   -2.4896    0.0002 O.2     1  UNL1       -0.2695
     23 C          -3.7241    6.2346   -0.0019 C.3     1  UNL1        0.0115
     24 H          -4.7486    6.6384   -0.0032 H       1  UNL1        0.0434
     25 H          -3.1654    6.5725   -0.8957 H       1  UNL1        0.0434
     26 H          -3.1674    6.5729    0.8929 H       1  UNL1        0.0434
     27 C          -4.0536   -3.7835   -0.0032 C.3     1  UNL1        0.0115
     28 H          -5.1107   -4.0965   -0.0047 H       1  UNL1        0.0434
     29 H          -3.5288   -4.1694    0.8914 H       1  UNL1        0.0434
     30 H          -3.5262   -4.1691   -0.8963 H       1  UNL1        0.0434
     31 H          -7.4124    2.5000   -0.0032 H       1  UNL1        0.0625
     32 C           0.0000    0.0000    0.0000 C.ar    1  UNL1        0.0201
     33 S           1.2679    1.2327    0.0008 S.2     1  UNL1       -0.0966
     34 C           2.5932    0.0571    0.0007 C.ar    1  UNL1       -0.0237
     35 C           0.6193   -1.2583   -0.0005 C.ar    1  UNL1       -0.0469
     36 C           2.0279   -1.2270   -0.0001 C.ar    1  UNL1       -0.0541
     37 H           0.0441   -2.1960   -0.0012 H       1  UNL1        0.0629
     38 H           2.6438   -2.1386   -0.0004 H       1  UNL1        0.0623
     39 H           3.6388    0.3831    0.0012 H       1  UNL1        0.0693
@<TRIPOS>BOND
     1    30    27    1
     2    25    23    1
     3    19    13    2
     4    21    16    2
     5    28    27    1
     6     5     2    1
     7    16     4    1
     8    16    18   am
     9    13     3    1
    10    13    15   am
    11     2     4   ar
    12     2     1   ar
    13     4     7   ar
    14    31     1    1
    15    24    23    1
    16    27    18    1
    17    27    29    1
    18    18    17   am
    19     1     3   ar
    20     3     6   ar
    21     7     6   ar
    22     7     9   ar
    23    23    15    1
    24    23    26    1
    25     6     8   ar
    26    15    14   am
    27     9    17    1
    28     9    11   ar
    29    17    22    2
    30    37    35    1
    31    35    36   ar
    32    35    32   ar
    33    38    36    1
    34     8    14    1
    35     8    10   ar
    36    11    32    1
    37    11    10   ar
    38    36    34   ar
    39    32    33   ar
    40    14    20    2
    41    10    12    1
    42    34    33   ar
    43    34    39    1
