@<TRIPOS>MOLECULE
/home/robert/research/impropers_analysis/pndit/test_xyzs/Dimethyl_Naphthalene_Dicarboximide_Phi_60_Theta_210_Thiophene.xyz
 39 43 0 0 0
SMALL
GASTEIGER

@<TRIPOS>ATOM
      1 C          -0.1272   -6.7414    0.2232 C.ar    1  UNL1       -0.0483
      2 C          -0.7799   -6.1556    1.3541 C.ar    1  UNL1       -0.0483
      3 C           0.4153   -5.7915   -0.7154 C.ar    1  UNL1        0.0458
      4 C          -0.9194   -4.8038    1.5953 C.ar    1  UNL1        0.0458
      5 H          -1.2188   -6.8215    2.1146 H       1  UNL1        0.0625
      6 C           0.2688   -4.3786   -0.4631 C.ar    1  UNL1        0.0078
      7 C          -0.3967   -3.8380    0.6889 C.ar    1  UNL1        0.0081
      8 C           0.7908   -3.4131   -1.3684 C.ar    1  UNL1        0.0461
      9 C          -0.5420   -2.4265    0.9392 C.ar    1  UNL1        0.0506
     10 C           0.6527   -2.0593   -1.1304 C.ar    1  UNL1       -0.0434
     11 C          -0.0000   -1.4782   -0.0000 C.ar    1  UNL1       -0.0122
     12 H           1.0918   -1.3948   -1.8918 H       1  UNL1        0.0629
     13 C           1.1381   -6.1880   -1.9637 C.2     1  UNL1        0.2535
     14 C           1.5062   -3.7982   -2.6074 C.2     1  UNL1        0.2535
     15 N           1.6294   -5.1700   -2.8173 N.am    1  UNL1       -0.2372
     16 C          -1.6366   -4.4250    2.8376 C.2     1  UNL1        0.2535
     17 C          -1.2645   -2.0366    2.1890 C.2     1  UNL1        0.2538
     18 N          -1.7562   -3.0492    3.0426 N.am    1  UNL1       -0.2372
     19 O           1.3363   -7.3531   -2.3012 O.2     1  UNL1       -0.2695
     20 O           1.9671   -2.9869   -3.4074 O.2     1  UNL1       -0.2695
     21 O          -2.0922   -5.2489    3.6280 O.2     1  UNL1       -0.2695
     22 O          -1.4722   -0.8788    2.5458 O.2     1  UNL1       -0.2695
     23 C           2.3366   -5.5638   -4.0402 C.3     1  UNL1        0.0115
     24 H           2.3602   -6.6641   -4.0787 H       1  UNL1        0.0434
     25 H           3.3620   -5.1471   -4.0279 H       1  UNL1        0.0434
     26 H           1.8134   -5.1488   -4.9228 H       1  UNL1        0.0434
     27 C          -2.4521   -2.5875    4.2472 C.3     1  UNL1        0.0115
     28 H          -2.7725   -3.4833    4.8042 H       1  UNL1        0.0434
     29 H          -3.3227   -1.9650    3.9660 H       1  UNL1        0.0434
     30 H          -1.7745   -1.9629    4.8597 H       1  UNL1        0.0434
     31 H          -0.0339   -7.8223    0.0624 H       1  UNL1        0.0625
     32 C           0.0000    0.0000    0.0000 C.3     1  UNL1        0.0829
     33 S           0.6868    0.3968    1.5805 S.3     1  UNL1       -0.1342
     34 C           2.1051    1.2156    0.9049 C.3     1  UNL1        0.0399
     35 C           0.8642    0.4991   -0.9854 C.2     1  UNL1       -0.0648
     36 C           2.0075    1.1593   -0.4935 C.2     1  UNL1       -0.0721
     37 H           0.6601    0.3813   -2.0599 H       1  UNL1        0.0587
     38 H           2.7704    1.5999   -1.1526 H       1  UNL1        0.0581
     39 H           2.8677    1.6561    1.5560 H       1  UNL1        0.0469
@<TRIPOS>BOND
     1    26    23    1
     2    24    23    1
     3    23    25    1
     4    23    15    1
     5    20    14    2
     6    15    14   am
     7    15    13   am
     8    14     8    1
     9    19    13    2
    10    37    35    1
    11    13     3    1
    12    12    10    1
    13     8    10   ar
    14     8     6   ar
    15    38    36    1
    16    10    11   ar
    17    35    36    2
    18    35    32    1
    19     3     6   ar
    20     3     1   ar
    21    36    34    1
    22     6     7   ar
    23    11    32    1
    24    11     9   ar
    25    32    33    1
    26    31     1    1
    27     1     2   ar
    28     7     9   ar
    29     7     4   ar
    30    34    39    1
    31    34    33    1
    32     9    17    1
    33     2     4   ar
    34     2     5    1
    35     4    16    1
    36    17    22    2
    37    17    18   am
    38    16    18   am
    39    16    21    2
    40    18    27    1
    41    29    27    1
    42    27    28    1
    43    27    30    1
