@<TRIPOS>MOLECULE
/home/robert/research/impropers_analysis/pndit/test_xyzs/Dimethyl_Naphthalene_Dicarboximide_Phi_30_Theta_190_Thiophene.xyz
 39 43 0 0 0
SMALL
GASTEIGER

@<TRIPOS>ATOM
      1 C          -0.0432   -6.7414    0.2533 C.ar    1  UNL1       -0.0483
      2 C          -0.2698   -6.1556    1.5392 C.ar    1  UNL1       -0.0483
      3 C           0.1455   -5.7915   -0.8143 C.ar    1  UNL1        0.0458
      4 C          -0.3184   -4.8038    1.8135 C.ar    1  UNL1        0.0458
      5 H          -0.4221   -6.8215    2.4039 H       1  UNL1        0.0625
      6 C           0.0942   -4.3786   -0.5271 C.ar    1  UNL1        0.0078
      7 C          -0.1372   -3.8380    0.7831 C.ar    1  UNL1        0.0084
      8 C           0.2751   -3.4131   -1.5564 C.ar    1  UNL1        0.0464
      9 C          -0.1881   -2.4265    1.0679 C.ar    1  UNL1        0.0540
     10 C           0.2267   -2.0593   -1.2854 C.ar    1  UNL1       -0.0400
     11 C          -0.0000   -1.4782   -0.0000 C.ar    1  UNL1        0.0022
     12 H           0.3789   -1.3948   -2.1511 H       1  UNL1        0.0632
     13 C           0.3978   -6.1880   -2.2346 C.2     1  UNL1        0.2535
     14 C           0.5236   -3.7982   -2.9653 C.2     1  UNL1        0.2535
     15 N           0.5676   -5.1700   -3.2047 N.am    1  UNL1       -0.2372
     16 C          -0.5674   -4.4250    3.2263 C.2     1  UNL1        0.2535
     17 C          -0.4395   -2.0366    2.4894 C.2     1  UNL1        0.2541
     18 N          -0.6097   -3.0492    3.4598 N.am    1  UNL1       -0.2372
     19 O           0.4686   -7.3531   -2.6195 O.2     1  UNL1       -0.2695
     20 O           0.6830   -2.9869   -3.8747 O.2     1  UNL1       -0.2695
     21 O          -0.7251   -5.2489    4.1248 O.2     1  UNL1       -0.2695
     22 O          -0.5126   -0.8788    2.8958 O.2     1  UNL1       -0.2695
     23 C           0.8139   -5.5638   -4.5957 C.3     1  UNL1        0.0115
     24 H           0.8229   -6.6641   -4.6400 H       1  UNL1        0.0434
     25 H           1.7816   -5.1471   -4.9348 H       1  UNL1        0.0434
     26 H           0.0204   -5.1488   -5.2462 H       1  UNL1        0.0434
     27 C          -0.8516   -2.5875    4.8297 C.3     1  UNL1        0.0115
     28 H          -0.9622   -3.4833    5.4627 H       1  UNL1        0.0434
     29 H          -1.7659   -1.9650    4.8632 H       1  UNL1        0.0434
     30 H          -0.0054   -1.9629    5.1735 H       1  UNL1        0.0434
     31 H          -0.0106   -7.8223    0.0702 H       1  UNL1        0.0625
     32 C           0.0000    0.0000    0.0000 C.ar    1  UNL1        0.0201
     33 S           0.3964    0.6870    1.5805 S.2     1  UNL1       -0.0966
     34 C           1.2152    2.1053    0.9049 C.ar    1  UNL1       -0.0237
     35 C           0.4989    0.8644   -0.9854 C.ar    1  UNL1       -0.0469
     36 C           1.1589    2.0078   -0.4935 C.ar    1  UNL1       -0.0541
     37 H           0.3810    0.6603   -2.0599 H       1  UNL1        0.0629
     38 H           1.5993    2.7707   -1.1526 H       1  UNL1        0.0623
     39 H           1.6555    2.8681    1.5560 H       1  UNL1        0.0693
@<TRIPOS>BOND
     1    26    23    1
     2    25    23    1
     3    24    23    1
     4    23    15    1
     5    20    14    2
     6    15    14   am
     7    15    13   am
     8    14     8    1
     9    19    13    2
    10    13     3    1
    11    12    10    1
    12    37    35    1
    13     8    10   ar
    14     8     6   ar
    15    10    11   ar
    16    38    36    1
    17    35    36   ar
    18    35    32   ar
    19     3     6   ar
    20     3     1   ar
    21     6     7   ar
    22    36    34   ar
    23    11    32    1
    24    11     9   ar
    25    32    33   ar
    26    31     1    1
    27     1     2   ar
    28     7     9   ar
    29     7     4   ar
    30    34    39    1
    31    34    33   ar
    32     9    17    1
    33     2     4   ar
    34     2     5    1
    35     4    16    1
    36    17    22    2
    37    17    18   am
    38    16    18   am
    39    16    21    2
    40    18    27    1
    41    27    29    1
    42    27    30    1
    43    27    28    1
