@<TRIPOS>MOLECULE
/home/robert/research/impropers_analysis/pndit/test_xyzs/Dimethyl_Naphthalene_Dicarboximide_Phi_25_Theta_100_Thiophene.xyz
 39 43 0 0 0
SMALL
GASTEIGER

@<TRIPOS>ATOM
      1 C           0.2533   -6.7414    0.0432 C.ar    1  UNL1       -0.0483
      2 C           1.5392   -6.1556    0.2698 C.ar    1  UNL1       -0.0483
      3 C          -0.8143   -5.7915   -0.1455 C.ar    1  UNL1        0.0458
      4 C           1.8135   -4.8038    0.3184 C.ar    1  UNL1        0.0458
      5 H           2.4039   -6.8215    0.4221 H       1  UNL1        0.0625
      6 C          -0.5271   -4.3786   -0.0942 C.ar    1  UNL1        0.0078
      7 C           0.7831   -3.8380    0.1372 C.ar    1  UNL1        0.0084
      8 C          -1.5564   -3.4131   -0.2751 C.ar    1  UNL1        0.0464
      9 C           1.0679   -2.4265    0.1881 C.ar    1  UNL1        0.0540
     10 C          -1.2854   -2.0593   -0.2267 C.ar    1  UNL1       -0.0400
     11 C          -0.0000   -1.4782   -0.0000 C.ar    1  UNL1        0.0022
     12 H          -2.1511   -1.3948   -0.3789 H       1  UNL1        0.0632
     13 C          -2.2346   -6.1880   -0.3978 C.2     1  UNL1        0.2535
     14 C          -2.9653   -3.7982   -0.5236 C.2     1  UNL1        0.2535
     15 N          -3.2047   -5.1700   -0.5676 N.am    1  UNL1       -0.2372
     16 C           3.2263   -4.4250    0.5674 C.2     1  UNL1        0.2535
     17 C           2.4894   -2.0366    0.4395 C.2     1  UNL1        0.2541
     18 N           3.4598   -3.0492    0.6097 N.am    1  UNL1       -0.2372
     19 O          -2.6195   -7.3531   -0.4686 O.2     1  UNL1       -0.2695
     20 O          -3.8747   -2.9869   -0.6830 O.2     1  UNL1       -0.2695
     21 O           4.1248   -5.2489    0.7251 O.2     1  UNL1       -0.2695
     22 O           2.8958   -0.8788    0.5126 O.2     1  UNL1       -0.2695
     23 C          -4.5957   -5.5638   -0.8139 C.3     1  UNL1        0.0115
     24 H          -4.6400   -6.6641   -0.8229 H       1  UNL1        0.0434
     25 H          -4.9348   -5.1471   -1.7816 H       1  UNL1        0.0434
     26 H          -5.2462   -5.1488   -0.0204 H       1  UNL1        0.0434
     27 C           4.8297   -2.5875    0.8516 C.3     1  UNL1        0.0115
     28 H           5.4627   -3.4833    0.9622 H       1  UNL1        0.0434
     29 H           4.8632   -1.9650    1.7659 H       1  UNL1        0.0434
     30 H           5.1735   -1.9629    0.0054 H       1  UNL1        0.0434
     31 H           0.0702   -7.8223    0.0106 H       1  UNL1        0.0625
     32 C           0.0000    0.0000    0.0000 C.ar    1  UNL1        0.0201
     33 S           0.3350    0.7189    1.5805 S.2     1  UNL1       -0.0966
     34 C           1.0271    2.2032    0.9049 C.ar    1  UNL1       -0.0237
     35 C           0.4216    0.9046   -0.9854 C.ar    1  UNL1       -0.0469
     36 C           0.9795    2.1011   -0.4935 C.ar    1  UNL1       -0.0541
     37 H           0.3220    0.6910   -2.0599 H       1  UNL1        0.0629
     38 H           1.3517    2.8996   -1.1526 H       1  UNL1        0.0623
     39 H           1.3992    3.0014    1.5560 H       1  UNL1        0.0693
@<TRIPOS>BOND
     1    37    35    1
     2    25    23    1
     3    38    36    1
     4    35    36   ar
     5    35    32   ar
     6    24    23    1
     7    23    15    1
     8    23    26    1
     9    20    14    2
    10    15    14   am
    11    15    13   am
    12    14     8    1
    13    36    34   ar
    14    19    13    2
    15    13     3    1
    16    12    10    1
    17     8    10   ar
    18     8     6   ar
    19    10    11   ar
    20     3     6   ar
    21     3     1   ar
    22     6     7   ar
    23    32    11    1
    24    32    33   ar
    25    11     9   ar
    26    30    27    1
    27    31     1    1
    28     1     2   ar
    29     7     9   ar
    30     7     4   ar
    31     9    17    1
    32     2     4   ar
    33     2     5    1
    34     4    16    1
    35    17    22    2
    36    17    18   am
    37    16    18   am
    38    16    21    2
    39    18    27    1
    40    27    28    1
    41    27    29    1
    42    34    39    1
    43    34    33   ar
