@<TRIPOS>MOLECULE
/home/robert/research/impropers_analysis/pndit/test_xyzs/Dimethyl_Naphthalene_Dicarboximide_Phi_25_Theta_80_Thiophene.xyz
 39 43 0 0 0
SMALL
GASTEIGER

@<TRIPOS>ATOM
      1 C           0.2528   -6.7414   -0.0461 C.ar    1  UNL1       -0.0483
      2 C           1.5387   -6.1556   -0.2729 C.ar    1  UNL1       -0.0483
      3 C          -0.8150   -5.7915    0.1417 C.ar    1  UNL1        0.0458
      4 C           1.8130   -4.8038   -0.3211 C.ar    1  UNL1        0.0458
      5 H           2.4033   -6.8215   -0.4256 H       1  UNL1        0.0625
      6 C          -0.5276   -4.3786    0.0918 C.ar    1  UNL1        0.0078
      7 C           0.7828   -3.8380   -0.1389 C.ar    1  UNL1        0.0084
      8 C          -1.5566   -3.4131    0.2738 C.ar    1  UNL1        0.0464
      9 C           1.0679   -2.4265   -0.1885 C.ar    1  UNL1        0.0540
     10 C          -1.2854   -2.0593    0.2266 C.ar    1  UNL1       -0.0400
     11 C          -0.0000   -1.4782   -0.0000 C.ar    1  UNL1        0.0022
     12 H          -2.1510   -1.3948    0.3797 H       1  UNL1        0.0632
     13 C          -2.2359   -6.1880    0.3904 C.2     1  UNL1        0.2535
     14 C          -2.9655   -3.7982    0.5221 C.2     1  UNL1        0.2535
     15 N          -3.2056   -5.1700    0.5627 N.am    1  UNL1       -0.2372
     16 C           3.2258   -4.4250   -0.5702 C.2     1  UNL1        0.2535
     17 C           2.4896   -2.0366   -0.4384 C.2     1  UNL1        0.2541
     18 N           3.4597   -3.0492   -0.6104 N.am    1  UNL1       -0.2372
     19 O          -2.6218   -7.3531    0.4556 O.2     1  UNL1       -0.2695
     20 O          -3.8746   -2.9869    0.6834 O.2     1  UNL1       -0.2695
     21 O           4.1241   -5.2489   -0.7294 O.2     1  UNL1       -0.2695
     22 O           2.8965   -0.8788   -0.5087 O.2     1  UNL1       -0.2695
     23 C          -4.5969   -5.5638    0.8070 C.3     1  UNL1        0.0115
     24 H          -4.6416   -6.6641    0.8137 H       1  UNL1        0.0434
     25 H          -5.2466   -5.1471    0.0137 H       1  UNL1        0.0434
     26 H          -4.9367   -5.1488    1.7752 H       1  UNL1        0.0434
     27 C           4.8297   -2.5875   -0.8516 C.3     1  UNL1        0.0115
     28 H           5.4624   -3.4833   -0.9642 H       1  UNL1        0.0434
     29 H           5.1739   -1.9650   -0.0040 H       1  UNL1        0.0434
     30 H           4.8634   -1.9629   -1.7644 H       1  UNL1        0.0434
     31 H           0.0696   -7.8223   -0.0141 H       1  UNL1        0.0625
     32 C           0.0000    0.0000    0.0000 C.ar    1  UNL1        0.0201
     33 S           0.3350    0.7189    1.5805 S.2     1  UNL1       -0.0966
     34 C           1.0271    2.2032    0.9049 C.ar    1  UNL1       -0.0237
     35 C           0.4216    0.9046   -0.9854 C.ar    1  UNL1       -0.0469
     36 C           0.9795    2.1011   -0.4935 C.ar    1  UNL1       -0.0541
     37 H           0.3220    0.6910   -2.0599 H       1  UNL1        0.0629
     38 H           1.3517    2.8996   -1.1526 H       1  UNL1        0.0623
     39 H           1.3992    3.0014    1.5560 H       1  UNL1        0.0693
@<TRIPOS>BOND
     1    37    35    1
     2    30    27    1
     3    38    36    1
     4    35    36   ar
     5    35    32   ar
     6    28    27    1
     7    27    18    1
     8    27    29    1
     9    21    16    2
    10    18    16   am
    11    18    17   am
    12    16     4    1
    13    22    17    2
    14    36    34   ar
    15    17     9    1
    16     5     2    1
    17     4     2   ar
    18     4     7   ar
    19     2     1   ar
    20     9     7   ar
    21     9    11   ar
    22     7     6   ar
    23     1    31    1
    24     1     3   ar
    25    32    11    1
    26    32    33   ar
    27    11    10   ar
    28    25    23    1
    29     6     3   ar
    30     6     8   ar
    31     3    13    1
    32    10     8   ar
    33    10    12    1
    34     8    14    1
    35    13    19    2
    36    13    15   am
    37    14    15   am
    38    14    20    2
    39    15    23    1
    40    23    24    1
    41    23    26    1
    42    34    39    1
    43    34    33   ar
