@<TRIPOS>MOLECULE
/home/robert/research/impropers_analysis/pndit/test_xyzs/Dimethyl_Naphthalene_Dicarboximide_Phi_25_Theta_0_Thiophene.xyz
 39 43 0 0 0
SMALL
GASTEIGER

@<TRIPOS>ATOM
      1 C           0.5861   -6.7159   -0.2569 C.ar    1  UNL1       -0.0483
      2 C           0.5349   -6.1324   -1.5627 C.ar    1  UNL1       -0.0483
      3 C           0.5028   -5.7696    0.8272 C.ar    1  UNL1        0.0458
      4 C           0.4173   -4.7856   -1.8413 C.ar    1  UNL1        0.0458
      5 H           0.5927   -6.7957   -2.4407 H       1  UNL1        0.0625
      6 C           0.3804   -4.3621    0.5355 C.ar    1  UNL1        0.0078
      7 C           0.3336   -3.8235   -0.7950 C.ar    1  UNL1        0.0084
      8 C           0.2968   -3.4001    1.5805 C.ar    1  UNL1        0.0464
      9 C           0.2113   -2.4173   -1.0844 C.ar    1  UNL1        0.0540
     10 C           0.1794   -2.0515    1.3053 C.ar    1  UNL1       -0.0400
     11 C           0.1288   -1.4726   -0.0000 C.ar    1  UNL1        0.0022
     12 H           0.1219   -1.3894    2.1843 H       1  UNL1        0.0632
     13 C           0.5356   -6.1648    2.2697 C.2     1  UNL1        0.2535
     14 C           0.3303   -3.7838    3.0112 C.2     1  UNL1        0.2535
     15 N           0.4481   -5.1505    3.2546 N.am    1  UNL1       -0.2372
     16 C           0.3842   -4.4083   -3.2758 C.2     1  UNL1        0.2535
     17 C           0.1781   -2.0288   -2.5280 C.2     1  UNL1        0.2541
     18 N           0.2654   -3.0376   -3.5131 N.am    1  UNL1       -0.2372
     19 O           0.6343   -7.3257    2.6610 O.2     1  UNL1       -0.2695
     20 O           0.2605   -2.9755    3.9344 O.2     1  UNL1       -0.2695
     21 O           0.4553   -5.2292   -4.1881 O.2     1  UNL1       -0.2695
     22 O           0.0786   -0.8753   -2.9408 O.2     1  UNL1       -0.2695
     23 C           0.4814   -5.5429    4.6672 C.3     1  UNL1        0.0115
     24 H           0.5762   -6.6391    4.7124 H       1  UNL1        0.0434
     25 H          -0.4456   -5.2057    5.1692 H       1  UNL1        0.0434
     26 H           1.3363   -5.0515    5.1700 H       1  UNL1        0.0434
     27 C           0.2256   -2.5776   -4.9042 C.3     1  UNL1        0.0115
     28 H           0.3026   -3.4702   -5.5468 H       1  UNL1        0.0434
     29 H           1.0624   -1.8795   -5.0960 H       1  UNL1        0.0434
     30 H          -0.7186   -2.0333   -5.0959 H       1  UNL1        0.0434
     31 H           0.6800   -7.7927   -0.0710 H       1  UNL1        0.0625
     32 C           0.0000    0.0000    0.0000 C.ar    1  UNL1        0.0201
     33 S           0.2711    0.7454    1.5805 S.2     1  UNL1       -0.0966
     34 C           0.8312    2.2844    0.9049 C.ar    1  UNL1       -0.0237
     35 C           0.3412    0.9379   -0.9854 C.ar    1  UNL1       -0.0469
     36 C           0.7926    2.1785   -0.4935 C.ar    1  UNL1       -0.0541
     37 H           0.2606    0.7164   -2.0599 H       1  UNL1        0.0629
     38 H           1.0939    3.0063   -1.1526 H       1  UNL1        0.0623
     39 H           1.1323    3.1120    1.5560 H       1  UNL1        0.0693
@<TRIPOS>BOND
     1    28    27    1
     2    29    27    1
     3    30    27    1
     4    27    18    1
     5    21    16    2
     6    18    16   am
     7    18    17   am
     8    16     4    1
     9    22    17    2
    10    17     9    1
    11     5     2    1
    12    37    35    1
    13     4     2   ar
    14     4     7   ar
    15     2     1   ar
    16    38    36    1
    17     9     7   ar
    18     9    11   ar
    19    35    36   ar
    20    35    32   ar
    21     7     6   ar
    22    36    34   ar
    23     1    31    1
    24     1     3   ar
    25    11    32    1
    26    11    10   ar
    27    32    33   ar
    28     6     3   ar
    29     6     8   ar
    30     3    13    1
    31    34    39    1
    32    34    33   ar
    33    10     8   ar
    34    10    12    1
    35     8    14    1
    36    13    19    2
    37    13    15   am
    38    14    15   am
    39    14    20    2
    40    15    23    1
    41    23    24    1
    42    23    25    1
    43    23    26    1
