@<TRIPOS>MOLECULE
/home/robert/research/impropers_analysis/pndit/test_xyzs/Dimethyl_Naphthalene_Dicarboximide_Phi_50_Theta_340_Thiophene.xyz
 39 43 0 0 0
SMALL
GASTEIGER

@<TRIPOS>ATOM
      1 C          -0.0893   -6.7414   -0.2409 C.ar    1  UNL1       -0.0483
      2 C          -0.5360   -6.1556   -1.4679 C.ar    1  UNL1       -0.0483
      3 C           0.2811   -5.7915    0.7780 C.ar    1  UNL1        0.0458
      4 C          -0.6310   -4.8038   -1.7297 C.ar    1  UNL1        0.0458
      5 H          -0.8365   -6.8215   -2.2929 H       1  UNL1        0.0625
      6 C           0.1820   -4.3786    0.5036 C.ar    1  UNL1        0.0078
      7 C          -0.2727   -3.8380   -0.7468 C.ar    1  UNL1        0.0081
      8 C           0.5400   -3.4131    1.4854 C.ar    1  UNL1        0.0461
      9 C          -0.3711   -2.4265   -1.0189 C.ar    1  UNL1        0.0506
     10 C           0.4464   -2.0593    1.2266 C.ar    1  UNL1       -0.0434
     11 C          -0.0000   -1.4782   -0.0000 C.ar    1  UNL1       -0.0122
     12 H           0.7474   -1.3948    2.0524 H       1  UNL1        0.0629
     13 C           0.7727   -6.1880    2.1341 C.2     1  UNL1        0.2535
     14 C           1.0292   -3.7982    2.8298 C.2     1  UNL1        0.2535
     15 N           1.1108   -5.1700    3.0592 N.am    1  UNL1       -0.2372
     16 C          -1.1217   -4.4250   -3.0777 C.2     1  UNL1        0.2535
     17 C          -0.8641   -2.0366   -2.3757 C.2     1  UNL1        0.2538
     18 N          -1.2019   -3.0492   -3.3011 N.am    1  UNL1       -0.2372
     19 O           0.9039   -7.3531    2.5028 O.2     1  UNL1       -0.2695
     20 O           1.3458   -2.9869    3.6971 O.2     1  UNL1       -0.2695
     21 O          -1.4344   -5.2489   -3.9348 O.2     1  UNL1       -0.2695
     22 O          -1.0039   -0.8788   -2.7642 O.2     1  UNL1       -0.2695
     23 C           1.5930   -5.5638    4.3869 C.3     1  UNL1        0.0115
     24 H           1.6074   -6.6641    4.4298 H       1  UNL1        0.0434
     25 H           0.9245   -5.1471    5.1645 H       1  UNL1        0.0434
     26 H           2.6054   -5.1488    4.5535 H       1  UNL1        0.0434
     27 C          -1.6773   -2.5875   -4.6085 C.3     1  UNL1        0.0115
     28 H          -1.8981   -3.4833   -5.2120 H       1  UNL1        0.0434
     29 H          -0.9023   -1.9650   -5.0946 H       1  UNL1        0.0434
     30 H          -2.5821   -1.9629   -4.4831 H       1  UNL1        0.0434
     31 H          -0.0260   -7.8223   -0.0661 H       1  UNL1        0.0625
     32 C           0.0000    0.0000    0.0000 C.3     1  UNL1        0.0829
     33 S           0.6075    0.5100    1.5805 S.3     1  UNL1       -0.1342
     34 C           1.8620    1.5627    0.9049 C.3     1  UNL1        0.0399
     35 C           0.7644    0.6416   -0.9854 C.2     1  UNL1       -0.0648
     36 C           1.7757    1.4903   -0.4935 C.2     1  UNL1       -0.0721
     37 H           0.5839    0.4901   -2.0599 H       1  UNL1        0.0587
     38 H           2.4505    2.0566   -1.1526 H       1  UNL1        0.0581
     39 H           2.5366    2.1289    1.5560 H       1  UNL1        0.0469
@<TRIPOS>BOND
     1    28    27    1
     2    29    27    1
     3    27    30    1
     4    27    18    1
     5    21    16    2
     6    18    16   am
     7    18    17   am
     8    16     4    1
     9    22    17    2
    10    17     9    1
    11     5     2    1
    12    37    35    1
    13     4     2   ar
    14     4     7   ar
    15     2     1   ar
    16    38    36    1
    17     9     7   ar
    18     9    11   ar
    19    35    36    2
    20    35    32    1
    21     7     6   ar
    22    36    34    1
    23     1    31    1
    24     1     3   ar
    25    11    32    1
    26    11    10   ar
    27    32    33    1
    28     6     3   ar
    29     6     8   ar
    30     3    13    1
    31    34    39    1
    32    34    33    1
    33    10     8   ar
    34    10    12    1
    35     8    14    1
    36    13    19    2
    37    13    15   am
    38    14    15   am
    39    14    20    2
    40    15    23    1
    41    23    24    1
    42    23    26    1
    43    23    25    1
