@<TRIPOS>MOLECULE
/home/robert/research/impropers_analysis/pndit/test_xyzs/Dimethyl_Naphthalene_Dicarboximide_Phi_60_Theta_160_Thiophene.xyz
 39 44 0 0 0
SMALL
GASTEIGER

@<TRIPOS>ATOM
      1 C           0.0893   -6.7414    0.2409 C.ar    1  UNL1       -0.0483
      2 C           0.5360   -6.1556    1.4679 C.ar    1  UNL1       -0.0481
      3 C          -0.2811   -5.7915   -0.7780 C.ar    1  UNL1        0.0458
      4 C           0.6310   -4.8038    1.7297 C.ar    1  UNL1        0.0481
      5 H           0.8365   -6.8215    2.2929 H       1  UNL1        0.0625
      6 C          -0.1820   -4.3786   -0.5036 C.ar    1  UNL1        0.0078
      7 C           0.2727   -3.8380    0.7468 C.ar    1  UNL1        0.0087
      8 C          -0.5400   -3.4131   -1.4854 C.ar    1  UNL1        0.0464
      9 C           0.3711   -2.4265    1.0189 C.ar    1  UNL1        0.0527
     10 C          -0.4464   -2.0593   -1.2266 C.ar    1  UNL1       -0.0400
     11 C          -0.0000   -1.4782   -0.0000 C.ar    1  UNL1        0.0045
     12 H          -0.7474   -1.3948   -2.0524 H       1  UNL1        0.0632
     13 C          -0.7727   -6.1880   -2.1341 C.2     1  UNL1        0.2535
     14 C          -1.0292   -3.7982   -2.8298 C.2     1  UNL1        0.2535
     15 N          -1.1108   -5.1700   -3.0592 N.am    1  UNL1       -0.2372
     16 C           1.1217   -4.4250    3.0777 C.ar    1  UNL1        0.2615
     17 C           0.8641   -2.0366    2.3757 C.ar    1  UNL1        0.2205
     18 N           1.2019   -3.0492    3.3011 N.ar    1  UNL1       -0.2808
     19 O          -0.9039   -7.3531   -2.5028 O.2     1  UNL1       -0.2695
     20 O          -1.3458   -2.9869   -3.6971 O.2     1  UNL1       -0.2695
     21 O           1.4344   -5.2489    3.9348 O.2     1  UNL1       -0.2669
     22 O           1.0039   -0.8788    2.7642 O.3     1  UNL1       -0.4092
     23 C          -1.5930   -5.5638   -4.3869 C.3     1  UNL1        0.0115
     24 H          -1.6074   -6.6641   -4.4298 H       1  UNL1        0.0434
     25 H          -0.9245   -5.1471   -5.1645 H       1  UNL1        0.0434
     26 H          -2.6054   -5.1488   -4.5535 H       1  UNL1        0.0434
     27 C           1.6773   -2.5875    4.6085 C.3     1  UNL1        0.0181
     28 H           1.8981   -3.4833    5.2120 H       1  UNL1        0.0458
     29 H           0.9023   -1.9650    5.0946 H       1  UNL1        0.0458
     30 H           2.5821   -1.9629    4.4831 H       1  UNL1        0.0458
     31 H           0.0260   -7.8223    0.0661 H       1  UNL1        0.0625
     32 C           0.0000    0.0000    0.0000 C.2     1  UNL1        0.0470
     33 S           0.6868    0.3968    1.5805 S.3     1  UNL1        0.0306
     34 C           2.1051    1.2156    0.9049 C.2     1  UNL1        0.0033
     35 C           0.8642    0.4991   -0.9854 C.2     1  UNL1       -0.0446
     36 C           2.0075    1.1593   -0.4935 C.2     1  UNL1       -0.0518
     37 H           0.6601    0.3813   -2.0599 H       1  UNL1        0.0630
     38 H           2.7704    1.5999   -1.1526 H       1  UNL1        0.0624
     39 H           2.8677    1.6561    1.5560 H       1  UNL1        0.0717
@<TRIPOS>BOND
     1    25    23    1
     2    26    23    1
     3    24    23    1
     4    23    15    1
     5    20    14    2
     6    15    14   am
     7    15    13   am
     8    14     8    1
     9    19    13    2
    10    13     3    1
    11    37    35    1
    12    12    10    1
    13     8    10   ar
    14     8     6   ar
    15    10    11   ar
    16    38    36    1
    17    35    36    2
    18    35    32    1
    19     3     6   ar
    20     3     1   ar
    21     6     7   ar
    22    36    34    1
    23    11    32    2
    24    11     9   ar
    25    32    33    1
    26    31     1    1
    27     1     2   ar
    28     7     9   ar
    29     7     4   ar
    30    34    39    1
    31    34    33    2
    32     9    17   ar
    33     2     4   ar
    34     2     5    1
    35    33    22    1
    36     4    16   ar
    37    17    22    1
    38    17    18   ar
    39    16    18   ar
    40    16    21    2
    41    18    27    1
    42    30    27    1
    43    27    29    1
    44    27    28    1
