@<TRIPOS>MOLECULE
/home/robert/research/impropers_analysis/pndit/test_xyzs/Dimethyl_Naphthalene_Dicarboximide_Phi_15_Theta_150_Thiophene.xyz
 39 43 0 0 0
SMALL
GASTEIGER

@<TRIPOS>ATOM
      1 C           0.1297   -6.7414    0.2218 C.ar    1  UNL1       -0.0483
      2 C           0.7827   -6.1556    1.3525 C.ar    1  UNL1       -0.0483
      3 C          -0.4119   -5.7915   -0.7173 C.ar    1  UNL1        0.0458
      4 C           0.9218   -4.8038    1.5939 C.ar    1  UNL1        0.0458
      5 H           1.2219   -6.8215    2.1128 H       1  UNL1        0.0625
      6 C          -0.2667   -4.3786   -0.4644 C.ar    1  UNL1        0.0078
      7 C           0.3983   -3.8380    0.6881 C.ar    1  UNL1        0.0084
      8 C          -0.7897   -3.4131   -1.3691 C.ar    1  UNL1        0.0464
      9 C           0.5423   -2.4265    0.9390 C.ar    1  UNL1        0.0540
     10 C          -0.6526   -2.0593   -1.1304 C.ar    1  UNL1       -0.0400
     11 C           0.0000   -1.4782    0.0000 C.ar    1  UNL1        0.0022
     12 H          -1.0925   -1.3948   -1.8914 H       1  UNL1        0.0632
     13 C          -1.1316   -6.1880   -1.9675 C.2     1  UNL1        0.2535
     14 C          -1.5049   -3.7982   -2.6081 C.2     1  UNL1        0.2535
     15 N          -1.6252   -5.1700   -2.8198 N.am    1  UNL1       -0.2372
     16 C           1.6391   -4.4250    2.8362 C.2     1  UNL1        0.2535
     17 C           1.2635   -2.0366    2.1896 C.2     1  UNL1        0.2541
     18 N           1.7569   -3.0492    3.0422 N.am    1  UNL1       -0.2372
     19 O          -1.3248   -7.3531   -2.3078 O.2     1  UNL1       -0.2695
     20 O          -1.9674   -2.9869   -3.4072 O.2     1  UNL1       -0.2695
     21 O           2.0959   -5.2489    3.6259 O.2     1  UNL1       -0.2695
     22 O           1.4687   -0.8788    2.5478 O.2     1  UNL1       -0.2695
     23 C          -2.3306   -5.5638   -4.0437 C.3     1  UNL1        0.0115
     24 H          -2.3522   -6.6641   -4.0834 H       1  UNL1        0.0434
     25 H          -1.8073   -5.1471   -4.9255 H       1  UNL1        0.0434
     26 H          -3.3566   -5.1488   -4.0319 H       1  UNL1        0.0434
     27 C           2.4521   -2.5875    4.2472 C.3     1  UNL1        0.0115
     28 H           2.7743   -3.4833    4.8032 H       1  UNL1        0.0434
     29 H           1.7733   -1.9650    4.8605 H       1  UNL1        0.0434
     30 H           3.3214   -1.9629    3.9666 H       1  UNL1        0.0434
     31 H           0.0370   -7.8223    0.0606 H       1  UNL1        0.0625
     32 C           0.0000    0.0000    0.0000 C.ar    1  UNL1        0.0201
     33 S           0.2051    0.7662    1.5805 S.2     1  UNL1       -0.0966
     34 C           0.6289    2.3481    0.9049 C.ar    1  UNL1       -0.0237
     35 C           0.2581    0.9640   -0.9854 C.ar    1  UNL1       -0.0469
     36 C           0.5997    2.2393   -0.4935 C.ar    1  UNL1       -0.0541
     37 H           0.1972    0.7364   -2.0599 H       1  UNL1        0.0629
     38 H           0.8277    3.0902   -1.1526 H       1  UNL1        0.0623
     39 H           0.8568    3.1988    1.5560 H       1  UNL1        0.0693
@<TRIPOS>BOND
     1    25    23    1
     2    24    23    1
     3    23    26    1
     4    23    15    1
     5    20    14    2
     6    15    14   am
     7    15    13   am
     8    14     8    1
     9    19    13    2
    10    37    35    1
    11    13     3    1
    12    12    10    1
    13     8    10   ar
    14     8     6   ar
    15    38    36    1
    16    10    11   ar
    17    35    36   ar
    18    35    32   ar
    19     3     6   ar
    20     3     1   ar
    21    36    34   ar
    22     6     7   ar
    23    11    32    1
    24    11     9   ar
    25    32    33   ar
    26    31     1    1
    27     1     2   ar
    28     7     9   ar
    29     7     4   ar
    30    34    39    1
    31    34    33   ar
    32     9    17    1
    33     2     4   ar
    34     2     5    1
    35     4    16    1
    36    17    22    2
    37    17    18   am
    38    16    18   am
    39    16    21    2
    40    18    27    1
    41    30    27    1
    42    27    28    1
    43    27    29    1
