@<TRIPOS>MOLECULE
/home/robert/research/impropers_analysis/pndit/test_xyzs/Dimethyl_Naphthalene_Dicarboximide_Phi_30_Theta_270_Thiophene.xyz
 39 43 0 0 0
SMALL
GASTEIGER

@<TRIPOS>ATOM
      1 C          -0.2569   -6.7414    0.0015 C.ar    1  UNL1       -0.0483
      2 C          -1.5627   -6.1556    0.0016 C.ar    1  UNL1       -0.0483
      3 C           0.8272   -5.7915    0.0019 C.ar    1  UNL1        0.0458
      4 C          -1.8413   -4.8038    0.0014 C.ar    1  UNL1        0.0458
      5 H          -2.4407   -6.8215    0.0018 H       1  UNL1        0.0625
      6 C           0.5355   -4.3786    0.0012 C.ar    1  UNL1        0.0078
      7 C          -0.7950   -3.8380    0.0009 C.ar    1  UNL1        0.0084
      8 C           1.5805   -3.4131    0.0007 C.ar    1  UNL1        0.0464
      9 C          -1.0844   -2.4265    0.0002 C.ar    1  UNL1        0.0540
     10 C           1.3053   -2.0593    0.0000 C.ar    1  UNL1       -0.0400
     11 C          -0.0000   -1.4782   -0.0000 C.ar    1  UNL1        0.0022
     12 H           2.1843   -1.3948   -0.0004 H       1  UNL1        0.0632
     13 C           2.2697   -6.1880    0.0038 C.2     1  UNL1        0.2535
     14 C           3.0112   -3.7982    0.0008 C.2     1  UNL1        0.2535
     15 N           3.2546   -5.1700    0.0025 N.am    1  UNL1       -0.2372
     16 C          -3.2758   -4.4250    0.0014 C.2     1  UNL1        0.2535
     17 C          -2.5280   -2.0366   -0.0006 C.2     1  UNL1        0.2541
     18 N          -3.5131   -3.0492    0.0004 N.am    1  UNL1       -0.2372
     19 O           2.6610   -7.3531    0.0066 O.2     1  UNL1       -0.2695
     20 O           3.9344   -2.9869   -0.0002 O.2     1  UNL1       -0.2695
     21 O          -4.1881   -5.2489    0.0022 O.2     1  UNL1       -0.2695
     22 O          -2.9408   -0.8788   -0.0020 O.2     1  UNL1       -0.2695
     23 C           4.6672   -5.5638    0.0035 C.3     1  UNL1        0.0115
     24 H           4.7124   -6.6641    0.0047 H       1  UNL1        0.0434
     25 H           5.1692   -5.1471    0.8976 H       1  UNL1        0.0434
     26 H           5.1700   -5.1488   -0.8909 H       1  UNL1        0.0434
     27 C          -4.9042   -2.5875   -0.0000 C.3     1  UNL1        0.0115
     28 H          -5.5468   -3.4833    0.0010 H       1  UNL1        0.0434
     29 H          -5.0960   -1.9650   -0.8945 H       1  UNL1        0.0434
     30 H          -5.0959   -1.9629    0.8931 H       1  UNL1        0.0434
     31 H          -0.0710   -7.8223    0.0018 H       1  UNL1        0.0625
     32 C           0.0000    0.0000    0.0000 C.ar    1  UNL1        0.0201
     33 S           0.3964    0.6870    1.5805 S.2     1  UNL1       -0.0966
     34 C           1.2152    2.1053    0.9049 C.ar    1  UNL1       -0.0237
     35 C           0.4989    0.8644   -0.9854 C.ar    1  UNL1       -0.0469
     36 C           1.1589    2.0078   -0.4935 C.ar    1  UNL1       -0.0541
     37 H           0.3810    0.6603   -2.0599 H       1  UNL1        0.0629
     38 H           1.5993    2.7707   -1.1526 H       1  UNL1        0.0623
     39 H           1.6555    2.8681    1.5560 H       1  UNL1        0.0693
@<TRIPOS>BOND
     1    37    35    1
     2    38    36    1
     3    35    36   ar
     4    35    32   ar
     5    29    27    1
     6    26    23    1
     7    36    34   ar
     8    22    17    2
     9    17     9    1
    10    17    18   am
    11    12    10    1
    12    20    14    2
    13    27    18    1
    14    27    28    1
    15    27    30    1
    16    11    32    1
    17    11    10   ar
    18    11     9   ar
    19    32    33   ar
    20    10     8   ar
    21     9     7   ar
    22    18    16   am
    23     8    14    1
    24     8     6   ar
    25    14    15   am
    26     7     6   ar
    27     7     4   ar
    28     6     3   ar
    29     4    16    1
    30     4     2   ar
    31    16    21    2
    32     1     2   ar
    33     1    31    1
    34     1     3   ar
    35     2     5    1
    36     3    13    1
    37    15    23    1
    38    15    13   am
    39    23    24    1
    40    23    25    1
    41    13    19    2
    42    34    39    1
    43    34    33   ar
