@<TRIPOS>MOLECULE
/home/robert/research/impropers_analysis/pndit/test_xyzs/Dimethyl_Naphthalene_Dicarboximide_Phi_30_Theta_140_Thiophene.xyz
 39 43 0 0 0
SMALL
GASTEIGER

@<TRIPOS>ATOM
      1 C           0.1663   -6.7414    0.1959 C.ar    1  UNL1       -0.0483
      2 C           1.0057   -6.1556    1.1960 C.ar    1  UNL1       -0.0483
      3 C          -0.5302   -5.7915   -0.6349 C.ar    1  UNL1        0.0458
      4 C           1.1846   -4.8038    1.4096 C.ar    1  UNL1        0.0458
      5 H           1.5702   -6.8215    1.8685 H       1  UNL1        0.0625
      6 C          -0.3433   -4.3786   -0.4110 C.ar    1  UNL1        0.0078
      7 C           0.5117   -3.8380    0.6084 C.ar    1  UNL1        0.0084
      8 C          -1.0154   -3.4131   -1.2112 C.ar    1  UNL1        0.0464
      9 C           0.6972   -2.4265    0.8306 C.ar    1  UNL1        0.0540
     10 C          -0.8390   -2.0593   -0.9999 C.ar    1  UNL1       -0.0400
     11 C          -0.0000   -1.4782   -0.0000 C.ar    1  UNL1        0.0022
     12 H          -1.4043   -1.3948   -1.6730 H       1  UNL1        0.0632
     13 C          -1.4561   -6.1880   -1.7411 C.2     1  UNL1        0.2535
     14 C          -1.9349   -3.7982   -2.3072 C.2     1  UNL1        0.2535
     15 N          -2.0901   -5.1700   -2.4948 N.am    1  UNL1       -0.2372
     16 C           2.1067   -4.4250    2.5085 C.2     1  UNL1        0.2535
     17 C           1.6245   -2.0366    1.9369 C.2     1  UNL1        0.2541
     18 N           2.2585   -3.0492    2.6909 N.am    1  UNL1       -0.2372
     19 O          -1.7054   -7.3531   -2.0427 O.2     1  UNL1       -0.2695
     20 O          -2.5291   -2.9869   -3.0138 O.2     1  UNL1       -0.2695
     21 O           2.6937   -5.2489    3.2069 O.2     1  UNL1       -0.2695
     22 O           1.8888   -0.8788    2.2541 O.2     1  UNL1       -0.2695
     23 C          -2.9973   -5.5638   -3.5775 C.3     1  UNL1        0.0115
     24 H          -3.0255   -6.6641   -3.6129 H       1  UNL1        0.0434
     25 H          -2.6351   -5.1471   -4.5368 H       1  UNL1        0.0434
     26 H          -4.0057   -5.1488   -3.3878 H       1  UNL1        0.0434
     27 C           3.1523   -2.5875    3.7569 C.3     1  UNL1        0.0115
     28 H           3.5662   -3.4833    4.2485 H       1  UNL1        0.0434
     29 H           2.5904   -1.9650    4.4788 H       1  UNL1        0.0434
     30 H           3.9597   -1.9629    3.3296 H       1  UNL1        0.0434
     31 H           0.0470   -7.8223    0.0532 H       1  UNL1        0.0625
     32 C           0.0000    0.0000    0.0000 C.ar    1  UNL1        0.0201
     33 S           0.3964    0.6870    1.5805 S.2     1  UNL1       -0.0966
     34 C           1.2152    2.1053    0.9049 C.ar    1  UNL1       -0.0237
     35 C           0.4989    0.8644   -0.9854 C.ar    1  UNL1       -0.0469
     36 C           1.1589    2.0078   -0.4935 C.ar    1  UNL1       -0.0541
     37 H           0.3810    0.6603   -2.0599 H       1  UNL1        0.0629
     38 H           1.5993    2.7707   -1.1526 H       1  UNL1        0.0623
     39 H           1.6555    2.8681    1.5560 H       1  UNL1        0.0693
@<TRIPOS>BOND
     1    25    23    1
     2    24    23    1
     3    23    26    1
     4    23    15    1
     5    20    14    2
     6    15    14   am
     7    15    13   am
     8    14     8    1
     9    37    35    1
    10    19    13    2
    11    13     3    1
    12    12    10    1
    13     8    10   ar
    14     8     6   ar
    15    38    36    1
    16    10    11   ar
    17    35    36   ar
    18    35    32   ar
    19     3     6   ar
    20     3     1   ar
    21    36    34   ar
    22     6     7   ar
    23    11    32    1
    24    11     9   ar
    25    32    33   ar
    26    31     1    1
    27     1     2   ar
    28     7     9   ar
    29     7     4   ar
    30     9    17    1
    31    34    39    1
    32    34    33   ar
    33     2     4   ar
    34     2     5    1
    35     4    16    1
    36    17    22    2
    37    17    18   am
    38    16    18   am
    39    16    21    2
    40    18    27    1
    41    30    27    1
    42    27    28    1
    43    27    29    1
