@<TRIPOS>MOLECULE
/home/robert/research/impropers_analysis/pndit/test_xyzs/Dimethyl_Naphthalene_Dicarboximide_Phi_40_Theta_110_Thiophene.xyz
 39 43 0 0 0
SMALL
GASTEIGER

@<TRIPOS>ATOM
      1 C           0.2419   -6.7414    0.0865 C.ar    1  UNL1       -0.0483
      2 C           1.4690   -6.1556    0.5330 C.ar    1  UNL1       -0.0483
      3 C          -0.7767   -5.7915   -0.2847 C.ar    1  UNL1        0.0458
      4 C           1.7307   -4.8038    0.6285 C.ar    1  UNL1        0.0458
      5 H           2.2941   -6.8215    0.8331 H       1  UNL1        0.0625
      6 C          -0.5028   -4.3786   -0.1843 C.ar    1  UNL1        0.0078
      7 C           0.7474   -3.8380    0.2711 C.ar    1  UNL1        0.0081
      8 C          -1.4850   -3.4131   -0.5412 C.ar    1  UNL1        0.0461
      9 C           1.0190   -2.4265    0.3707 C.ar    1  UNL1        0.0506
     10 C          -1.2265   -2.0593   -0.4465 C.ar    1  UNL1       -0.0434
     11 C           0.0000   -1.4782    0.0000 C.ar    1  UNL1       -0.0122
     12 H          -2.0527   -1.3948   -0.7467 H       1  UNL1        0.0629
     13 C          -2.1315   -6.1880   -0.7798 C.2     1  UNL1        0.2535
     14 C          -2.8293   -3.7982   -1.0306 C.2     1  UNL1        0.2535
     15 N          -3.0575   -5.1700   -1.1155 N.am    1  UNL1       -0.2372
     16 C           3.0787   -4.4250    1.1190 C.2     1  UNL1        0.2535
     17 C           2.3753   -2.0366    0.8652 C.2     1  UNL1        0.2538
     18 N           3.3014   -3.0492    1.2012 N.am    1  UNL1       -0.2372
     19 O          -2.4983   -7.3531   -0.9164 O.2     1  UNL1       -0.2695
     20 O          -3.6972   -2.9869   -1.3455 O.2     1  UNL1       -0.2695
     21 O           3.9362   -5.2489    1.4304 O.2     1  UNL1       -0.2695
     22 O           2.7628   -0.8788    1.0077 O.2     1  UNL1       -0.2695
     23 C          -4.3845   -5.5638   -1.5996 C.3     1  UNL1        0.0115
     24 H          -4.4266   -6.6641   -1.6161 H       1  UNL1        0.0434
     25 H          -4.5505   -5.1471   -2.6115 H       1  UNL1        0.0434
     26 H          -5.1629   -5.1488   -0.9310 H       1  UNL1        0.0434
     27 C           4.6085   -2.5875    1.6774 C.3     1  UNL1        0.0115
     28 H           5.2127   -3.4833    1.8962 H       1  UNL1        0.0434
     29 H           4.4827   -1.9650    2.5835 H       1  UNL1        0.0434
     30 H           5.0940   -1.9629    0.9037 H       1  UNL1        0.0434
     31 H           0.0673   -7.8223    0.0226 H       1  UNL1        0.0625
     32 C           0.0000    0.0000    0.0000 C.3     1  UNL1        0.0829
     33 S           0.5097    0.6077    1.5805 S.3     1  UNL1       -0.1342
     34 C           1.5624    1.8623    0.9049 C.3     1  UNL1        0.0399
     35 C           0.6414    0.7646   -0.9854 C.2     1  UNL1       -0.0648
     36 C           1.4899    1.7760   -0.4935 C.2     1  UNL1       -0.0721
     37 H           0.4899    0.5841   -2.0599 H       1  UNL1        0.0587
     38 H           2.0561    2.4509   -1.1526 H       1  UNL1        0.0581
     39 H           2.1284    2.5370    1.5560 H       1  UNL1        0.0469
@<TRIPOS>BOND
     1    25    23    1
     2    37    35    1
     3    24    23    1
     4    23    15    1
     5    23    26    1
     6    20    14    2
     7    38    36    1
     8    15    14   am
     9    15    13   am
    10    14     8    1
    11    35    36    2
    12    35    32    1
    13    19    13    2
    14    13     3    1
    15    12    10    1
    16     8    10   ar
    17     8     6   ar
    18    36    34    1
    19    10    11   ar
    20     3     6   ar
    21     3     1   ar
    22     6     7   ar
    23    11    32    1
    24    11     9   ar
    25    32    33    1
    26    31     1    1
    27     1     2   ar
    28     7     9   ar
    29     7     4   ar
    30     9    17    1
    31     2     4   ar
    32     2     5    1
    33     4    16    1
    34    17    22    2
    35    17    18   am
    36    30    27    1
    37    34    39    1
    38    34    33    1
    39    16    18   am
    40    16    21    2
    41    18    27    1
    42    27    28    1
    43    27    29    1
