@<TRIPOS>MOLECULE
/home/robert/research/impropers_analysis/pndit/test_xyzs/Dimethyl_Naphthalene_Dicarboximide_Phi_50_Theta_0_Thiophene.xyz
 39 43 0 0 0
SMALL
GASTEIGER

@<TRIPOS>ATOM
      1 C           1.1692   -6.6392   -0.2569 C.ar    1  UNL1       -0.0483
      2 C           1.0673   -6.0624   -1.5627 C.ar    1  UNL1       -0.0483
      3 C           1.0038   -5.7038    0.8272 C.ar    1  UNL1        0.0458
      4 C           0.8328   -4.7310   -1.8413 C.ar    1  UNL1        0.0458
      5 H           1.1828   -6.7182   -2.4407 H       1  UNL1        0.0625
      6 C           0.7591   -4.3123    0.5355 C.ar    1  UNL1        0.0078
      7 C           0.6656   -3.7799   -0.7950 C.ar    1  UNL1        0.0081
      8 C           0.5920   -3.3613    1.5805 C.ar    1  UNL1        0.0461
      9 C           0.4212   -2.3896   -1.0844 C.ar    1  UNL1        0.0506
     10 C           0.3576   -2.0281    1.3053 C.ar    1  UNL1       -0.0434
     11 C           0.2567   -1.4558    0.0000 C.ar    1  UNL1       -0.0122
     12 H           0.2426   -1.3735    2.1843 H       1  UNL1        0.0629
     13 C           1.0708   -6.0946    2.2697 C.2     1  UNL1        0.2535
     14 C           0.6588   -3.7406    3.0112 C.2     1  UNL1        0.2535
     15 N           0.8953   -5.0919    3.2546 N.am    1  UNL1       -0.2372
     16 C           0.7670   -4.3580   -3.2758 C.2     1  UNL1        0.2535
     17 C           0.3542   -2.0056   -2.5280 C.2     1  UNL1        0.2538
     18 N           0.5291   -3.0029   -3.5131 N.am    1  UNL1       -0.2372
     19 O           1.2703   -7.2426    2.6610 O.2     1  UNL1       -0.2695
     20 O           0.5188   -2.9414    3.9344 O.2     1  UNL1       -0.2695
     21 O           0.9094   -5.1696   -4.1881 O.2     1  UNL1       -0.2695
     22 O           0.1546   -0.8651   -2.9408 O.2     1  UNL1       -0.2695
     23 C           0.9627   -5.4799    4.6672 C.3     1  UNL1        0.0115
     24 H           1.1526   -6.5637    4.7124 H       1  UNL1        0.0434
     25 H           0.0098   -5.2248    5.1692 H       1  UNL1        0.0434
     26 H           1.7715   -4.9159    5.1700 H       1  UNL1        0.0434
     27 C           0.4494   -2.5482   -4.9042 C.3     1  UNL1        0.0115
     28 H           0.6039   -3.4306   -5.5468 H       1  UNL1        0.0434
     29 H           1.2222   -1.7798   -5.0960 H       1  UNL1        0.0434
     30 H          -0.5386   -2.0882   -5.0959 H       1  UNL1        0.0434
     31 H           1.3566   -7.7038   -0.0710 H       1  UNL1        0.0625
     32 C           0.0000    0.0000    0.0000 C.3     1  UNL1        0.0829
     33 S           0.5097    0.6077    1.5805 S.3     1  UNL1       -0.1342
     34 C           1.5624    1.8623    0.9049 C.3     1  UNL1        0.0399
     35 C           0.6414    0.7646   -0.9854 C.2     1  UNL1       -0.0648
     36 C           1.4899    1.7760   -0.4935 C.2     1  UNL1       -0.0721
     37 H           0.4899    0.5841   -2.0599 H       1  UNL1        0.0587
     38 H           2.0561    2.4509   -1.1526 H       1  UNL1        0.0581
     39 H           2.1284    2.5370    1.5560 H       1  UNL1        0.0469
@<TRIPOS>BOND
     1    28    27    1
     2    29    27    1
     3    30    27    1
     4    27    18    1
     5    21    16    2
     6    18    16   am
     7    18    17   am
     8    16     4    1
     9    22    17    2
    10    17     9    1
    11     5     2    1
    12    37    35    1
    13     4     2   ar
    14     4     7   ar
    15     2     1   ar
    16    38    36    1
    17     9     7   ar
    18     9    11   ar
    19    35    36    2
    20    35    32    1
    21     7     6   ar
    22    36    34    1
    23     1    31    1
    24     1     3   ar
    25    11    32    1
    26    11    10   ar
    27    32    33    1
    28     6     3   ar
    29     6     8   ar
    30     3    13    1
    31    34    39    1
    32    34    33    1
    33    10     8   ar
    34    10    12    1
    35     8    14    1
    36    13    19    2
    37    13    15   am
    38    14    15   am
    39    14    20    2
    40    15    23    1
    41    23    24    1
    42    23    25    1
    43    23    26    1
