@<TRIPOS>MOLECULE
/home/robert/research/impropers_analysis/pndit/test_xyzs/Dimethyl_Naphthalene_Dicarboximide_Phi_10_Theta_180_Thiophene.xyz
 39 44 0 0 0
SMALL
GASTEIGER

@<TRIPOS>ATOM
      1 C           0.0015   -6.7414    0.2569 C.ar    1  UNL1       -0.0483
      2 C           0.0016   -6.1556    1.5627 C.ar    1  UNL1       -0.0481
      3 C           0.0019   -5.7915   -0.8272 C.ar    1  UNL1        0.0458
      4 C           0.0014   -4.8038    1.8413 C.ar    1  UNL1        0.0481
      5 H           0.0018   -6.8215    2.4407 H       1  UNL1        0.0625
      6 C           0.0012   -4.3786   -0.5355 C.ar    1  UNL1        0.0078
      7 C           0.0009   -3.8380    0.7950 C.ar    1  UNL1        0.0087
      8 C           0.0007   -3.4131   -1.5805 C.ar    1  UNL1        0.0464
      9 C           0.0002   -2.4265    1.0844 C.ar    1  UNL1        0.0527
     10 C           0.0000   -2.0593   -1.3053 C.ar    1  UNL1       -0.0400
     11 C          -0.0000   -1.4782   -0.0000 C.ar    1  UNL1        0.0045
     12 H          -0.0004   -1.3948   -2.1843 H       1  UNL1        0.0632
     13 C           0.0038   -6.1880   -2.2697 C.2     1  UNL1        0.2535
     14 C           0.0008   -3.7982   -3.0112 C.2     1  UNL1        0.2535
     15 N           0.0025   -5.1700   -3.2546 N.am    1  UNL1       -0.2372
     16 C           0.0014   -4.4250    3.2758 C.ar    1  UNL1        0.2615
     17 C          -0.0006   -2.0366    2.5280 C.ar    1  UNL1        0.2205
     18 N           0.0004   -3.0492    3.5131 N.ar    1  UNL1       -0.2808
     19 O           0.0066   -7.3531   -2.6610 O.2     1  UNL1       -0.2695
     20 O          -0.0002   -2.9869   -3.9344 O.2     1  UNL1       -0.2695
     21 O           0.0022   -5.2489    4.1881 O.2     1  UNL1       -0.2669
     22 O          -0.0020   -0.8788    2.9408 O.3     1  UNL1       -0.4092
     23 C           0.0035   -5.5638   -4.6672 C.3     1  UNL1        0.0115
     24 H           0.0047   -6.6641   -4.7124 H       1  UNL1        0.0434
     25 H           0.8976   -5.1471   -5.1692 H       1  UNL1        0.0434
     26 H          -0.8909   -5.1488   -5.1700 H       1  UNL1        0.0434
     27 C          -0.0000   -2.5875    4.9042 C.3     1  UNL1        0.0181
     28 H           0.0010   -3.4833    5.5468 H       1  UNL1        0.0458
     29 H          -0.8945   -1.9650    5.0960 H       1  UNL1        0.0458
     30 H           0.8931   -1.9629    5.0959 H       1  UNL1        0.0458
     31 H           0.0018   -7.8223    0.0710 H       1  UNL1        0.0625
     32 C           0.0000    0.0000    0.0000 C.2     1  UNL1        0.0470
     33 S           0.1375    0.7812    1.5805 S.3     1  UNL1        0.0306
     34 C           0.4219    2.3940    0.9049 C.2     1  UNL1        0.0033
     35 C           0.1731    0.9829   -0.9854 C.2     1  UNL1       -0.0446
     36 C           0.4023    2.2831   -0.4935 C.2     1  UNL1       -0.0518
     37 H           0.1322    0.7508   -2.0599 H       1  UNL1        0.0630
     38 H           0.5552    3.1506   -1.1526 H       1  UNL1        0.0624
     39 H           0.5747    3.2613    1.5560 H       1  UNL1        0.0717
@<TRIPOS>BOND
     1    26    23    1
     2    25    23    1
     3    24    23    1
     4    23    15    1
     5    20    14    2
     6    15    14   am
     7    15    13   am
     8    14     8    1
     9    19    13    2
    10    13     3    1
    11    12    10    1
    12    37    35    1
    13     8    10   ar
    14     8     6   ar
    15    10    11   ar
    16    38    36    1
    17    35    36    2
    18    35    32    1
    19     3     6   ar
    20     3     1   ar
    21     6     7   ar
    22    36    34    1
    23    11    32    2
    24    11     9   ar
    25    32    33    1
    26    31     1    1
    27     1     2   ar
    28     7     9   ar
    29     7     4   ar
    30    34    39    1
    31    34    33    2
    32     9    17   ar
    33     2     4   ar
    34     2     5    1
    35    33    22    1
    36     4    16   ar
    37    17    22    1
    38    17    18   ar
    39    16    18   ar
    40    16    21    2
    41    18    27    1
    42    27    30    1
    43    27    29    1
    44    27    28    1
