@<TRIPOS>MOLECULE
/home/robert/research/impropers_analysis/pndit/test_xyzs/Dimethyl_Naphthalene_Dicarboximide_Phi_20_Theta_240_Thiophene.xyz
 39 43 0 0 0
SMALL
GASTEIGER

@<TRIPOS>ATOM
      1 C          -0.2218   -6.7414    0.1297 C.ar    1  UNL1       -0.0483
      2 C          -1.3525   -6.1556    0.7827 C.ar    1  UNL1       -0.0483
      3 C           0.7173   -5.7915   -0.4119 C.ar    1  UNL1        0.0458
      4 C          -1.5939   -4.8038    0.9218 C.ar    1  UNL1        0.0458
      5 H          -2.1128   -6.8215    1.2219 H       1  UNL1        0.0625
      6 C           0.4644   -4.3786   -0.2667 C.ar    1  UNL1        0.0078
      7 C          -0.6881   -3.8380    0.3983 C.ar    1  UNL1        0.0084
      8 C           1.3691   -3.4131   -0.7897 C.ar    1  UNL1        0.0464
      9 C          -0.9390   -2.4265    0.5423 C.ar    1  UNL1        0.0540
     10 C           1.1304   -2.0593   -0.6526 C.ar    1  UNL1       -0.0400
     11 C          -0.0000   -1.4782   -0.0000 C.ar    1  UNL1        0.0022
     12 H           1.8914   -1.3948   -1.0925 H       1  UNL1        0.0632
     13 C           1.9675   -6.1880   -1.1316 C.2     1  UNL1        0.2535
     14 C           2.6081   -3.7982   -1.5049 C.2     1  UNL1        0.2535
     15 N           2.8198   -5.1700   -1.6252 N.am    1  UNL1       -0.2372
     16 C          -2.8362   -4.4250    1.6391 C.2     1  UNL1        0.2535
     17 C          -2.1896   -2.0366    1.2635 C.2     1  UNL1        0.2541
     18 N          -3.0422   -3.0492    1.7569 N.am    1  UNL1       -0.2372
     19 O           2.3078   -7.3531   -1.3248 O.2     1  UNL1       -0.2695
     20 O           3.4072   -2.9869   -1.9674 O.2     1  UNL1       -0.2695
     21 O          -3.6259   -5.2489    2.0959 O.2     1  UNL1       -0.2695
     22 O          -2.5478   -0.8788    1.4687 O.2     1  UNL1       -0.2695
     23 C           4.0437   -5.5638   -2.3306 C.3     1  UNL1        0.0115
     24 H           4.0834   -6.6641   -2.3522 H       1  UNL1        0.0434
     25 H           4.9255   -5.1471   -1.8073 H       1  UNL1        0.0434
     26 H           4.0319   -5.1488   -3.3566 H       1  UNL1        0.0434
     27 C          -4.2472   -2.5875    2.4521 C.3     1  UNL1        0.0115
     28 H          -4.8032   -3.4833    2.7743 H       1  UNL1        0.0434
     29 H          -4.8605   -1.9650    1.7733 H       1  UNL1        0.0434
     30 H          -3.9666   -1.9629    3.3214 H       1  UNL1        0.0434
     31 H          -0.0606   -7.8223    0.0370 H       1  UNL1        0.0625
     32 C           0.0000    0.0000    0.0000 C.ar    1  UNL1        0.0201
     33 S           0.2711    0.7454    1.5805 S.2     1  UNL1       -0.0966
     34 C           0.8312    2.2844    0.9049 C.ar    1  UNL1       -0.0237
     35 C           0.3412    0.9379   -0.9854 C.ar    1  UNL1       -0.0469
     36 C           0.7926    2.1785   -0.4935 C.ar    1  UNL1       -0.0541
     37 H           0.2606    0.7164   -2.0599 H       1  UNL1        0.0629
     38 H           1.0939    3.0063   -1.1526 H       1  UNL1        0.0623
     39 H           1.1323    3.1120    1.5560 H       1  UNL1        0.0693
@<TRIPOS>BOND
     1    26    23    1
     2    24    23    1
     3    23    25    1
     4    23    15    1
     5    37    35    1
     6    20    14    2
     7    15    14   am
     8    15    13   am
     9    14     8    1
    10    19    13    2
    11    38    36    1
    12    13     3    1
    13    12    10    1
    14    35    36   ar
    15    35    32   ar
    16     8    10   ar
    17     8     6   ar
    18    10    11   ar
    19    36    34   ar
    20     3     6   ar
    21     3     1   ar
    22     6     7   ar
    23    11    32    1
    24    11     9   ar
    25    32    33   ar
    26    31     1    1
    27     1     2   ar
    28     7     9   ar
    29     7     4   ar
    30     9    17    1
    31     2     4   ar
    32     2     5    1
    33    34    39    1
    34    34    33   ar
    35     4    16    1
    36    17    22    2
    37    17    18   am
    38    16    18   am
    39    16    21    2
    40    18    27    1
    41    29    27    1
    42    27    28    1
    43    27    30    1
