@<TRIPOS>MOLECULE
/home/robert/research/impropers_analysis/pndit/test_xyzs/Dimethyl_Naphthalene_Dicarboximide_Phi_25_Theta_290_Thiophene.xyz
 39 43 0 0 0
SMALL
GASTEIGER

@<TRIPOS>ATOM
      1 C          -0.2419   -6.7414   -0.0865 C.ar    1  UNL1       -0.0483
      2 C          -1.4690   -6.1556   -0.5330 C.ar    1  UNL1       -0.0483
      3 C           0.7767   -5.7915    0.2847 C.ar    1  UNL1        0.0458
      4 C          -1.7307   -4.8038   -0.6285 C.ar    1  UNL1        0.0458
      5 H          -2.2941   -6.8215   -0.8331 H       1  UNL1        0.0625
      6 C           0.5028   -4.3786    0.1843 C.ar    1  UNL1        0.0078
      7 C          -0.7474   -3.8380   -0.2711 C.ar    1  UNL1        0.0084
      8 C           1.4850   -3.4131    0.5412 C.ar    1  UNL1        0.0464
      9 C          -1.0190   -2.4265   -0.3707 C.ar    1  UNL1        0.0540
     10 C           1.2265   -2.0593    0.4465 C.ar    1  UNL1       -0.0400
     11 C          -0.0000   -1.4782   -0.0000 C.ar    1  UNL1        0.0022
     12 H           2.0527   -1.3948    0.7467 H       1  UNL1        0.0632
     13 C           2.1315   -6.1880    0.7798 C.2     1  UNL1        0.2535
     14 C           2.8293   -3.7982    1.0306 C.2     1  UNL1        0.2535
     15 N           3.0575   -5.1700    1.1155 N.am    1  UNL1       -0.2372
     16 C          -3.0787   -4.4250   -1.1190 C.2     1  UNL1        0.2535
     17 C          -2.3753   -2.0366   -0.8652 C.2     1  UNL1        0.2541
     18 N          -3.3014   -3.0492   -1.2012 N.am    1  UNL1       -0.2372
     19 O           2.4983   -7.3531    0.9164 O.2     1  UNL1       -0.2695
     20 O           3.6972   -2.9869    1.3455 O.2     1  UNL1       -0.2695
     21 O          -3.9362   -5.2489   -1.4304 O.2     1  UNL1       -0.2695
     22 O          -2.7628   -0.8788   -1.0077 O.2     1  UNL1       -0.2695
     23 C           4.3845   -5.5638    1.5996 C.3     1  UNL1        0.0115
     24 H           4.4266   -6.6641    1.6161 H       1  UNL1        0.0434
     25 H           4.5505   -5.1471    2.6115 H       1  UNL1        0.0434
     26 H           5.1629   -5.1488    0.9310 H       1  UNL1        0.0434
     27 C          -4.6085   -2.5875   -1.6774 C.3     1  UNL1        0.0115
     28 H          -5.2127   -3.4833   -1.8962 H       1  UNL1        0.0434
     29 H          -4.4827   -1.9650   -2.5835 H       1  UNL1        0.0434
     30 H          -5.0940   -1.9629   -0.9037 H       1  UNL1        0.0434
     31 H          -0.0673   -7.8223   -0.0226 H       1  UNL1        0.0625
     32 C           0.0000    0.0000    0.0000 C.ar    1  UNL1        0.0201
     33 S           0.3350    0.7189    1.5805 S.2     1  UNL1       -0.0966
     34 C           1.0271    2.2032    0.9049 C.ar    1  UNL1       -0.0237
     35 C           0.4216    0.9046   -0.9854 C.ar    1  UNL1       -0.0469
     36 C           0.9795    2.1011   -0.4935 C.ar    1  UNL1       -0.0541
     37 H           0.3220    0.6910   -2.0599 H       1  UNL1        0.0629
     38 H           1.3517    2.8996   -1.1526 H       1  UNL1        0.0623
     39 H           1.3992    3.0014    1.5560 H       1  UNL1        0.0693
@<TRIPOS>BOND
     1    29    27    1
     2    37    35    1
     3    28    27    1
     4    27    18    1
     5    27    30    1
     6    21    16    2
     7    18    16   am
     8    18    17   am
     9    38    36    1
    10    16     4    1
    11    22    17    2
    12    35    36   ar
    13    35    32   ar
    14    17     9    1
    15     5     2    1
    16     4     2   ar
    17     4     7   ar
    18     2     1   ar
    19    36    34   ar
    20     9     7   ar
    21     9    11   ar
    22     7     6   ar
    23     1    31    1
    24     1     3   ar
    25    32    11    1
    26    32    33   ar
    27    11    10   ar
    28     6     3   ar
    29     6     8   ar
    30     3    13    1
    31    10     8   ar
    32    10    12    1
    33     8    14    1
    34    13    19    2
    35    13    15   am
    36    34    39    1
    37    34    33   ar
    38    26    23    1
    39    14    15   am
    40    14    20    2
    41    15    23    1
    42    23    24    1
    43    23    25    1
