@<TRIPOS>MOLECULE
/home/robert/research/impropers_analysis/pndit/test_xyzs/Dimethyl_Naphthalene_Dicarboximide_Phi_0_Theta_250_Thiophene.xyz
 39 43 0 0 0
SMALL
GASTEIGER

@<TRIPOS>ATOM
      1 C          -0.2409   -6.7414    0.0893 C.ar    1  UNL1       -0.0483
      2 C          -1.4679   -6.1556    0.5360 C.ar    1  UNL1       -0.0483
      3 C           0.7780   -5.7915   -0.2811 C.ar    1  UNL1        0.0458
      4 C          -1.7297   -4.8038    0.6310 C.ar    1  UNL1        0.0458
      5 H          -2.2929   -6.8215    0.8365 H       1  UNL1        0.0625
      6 C           0.5036   -4.3786   -0.1820 C.ar    1  UNL1        0.0078
      7 C          -0.7468   -3.8380    0.2727 C.ar    1  UNL1        0.0084
      8 C           1.4854   -3.4131   -0.5400 C.ar    1  UNL1        0.0464
      9 C          -1.0189   -2.4265    0.3711 C.ar    1  UNL1        0.0540
     10 C           1.2266   -2.0593   -0.4464 C.ar    1  UNL1       -0.0400
     11 C          -0.0000   -1.4782   -0.0000 C.ar    1  UNL1        0.0022
     12 H           2.0524   -1.3948   -0.7474 H       1  UNL1        0.0632
     13 C           2.1341   -6.1880   -0.7727 C.2     1  UNL1        0.2535
     14 C           2.8298   -3.7982   -1.0292 C.2     1  UNL1        0.2535
     15 N           3.0592   -5.1700   -1.1108 N.am    1  UNL1       -0.2372
     16 C          -3.0777   -4.4250    1.1217 C.2     1  UNL1        0.2535
     17 C          -2.3757   -2.0366    0.8641 C.2     1  UNL1        0.2541
     18 N          -3.3011   -3.0492    1.2019 N.am    1  UNL1       -0.2372
     19 O           2.5028   -7.3531   -0.9039 O.2     1  UNL1       -0.2695
     20 O           3.6971   -2.9869   -1.3458 O.2     1  UNL1       -0.2695
     21 O          -3.9348   -5.2489    1.4344 O.2     1  UNL1       -0.2695
     22 O          -2.7642   -0.8788    1.0039 O.2     1  UNL1       -0.2695
     23 C           4.3869   -5.5638   -1.5930 C.3     1  UNL1        0.0115
     24 H           4.4298   -6.6641   -1.6074 H       1  UNL1        0.0434
     25 H           5.1645   -5.1471   -0.9245 H       1  UNL1        0.0434
     26 H           4.5535   -5.1488   -2.6054 H       1  UNL1        0.0434
     27 C          -4.6085   -2.5875    1.6773 C.3     1  UNL1        0.0115
     28 H          -5.2120   -3.4833    1.8981 H       1  UNL1        0.0434
     29 H          -5.0946   -1.9650    0.9023 H       1  UNL1        0.0434
     30 H          -4.4831   -1.9629    2.5821 H       1  UNL1        0.0434
     31 H          -0.0661   -7.8223    0.0260 H       1  UNL1        0.0625
     32 C           0.0000    0.0000    0.0000 C.ar    1  UNL1        0.0201
     33 S          -0.0002    0.7932    1.5805 S.2     1  UNL1       -0.0966
     34 C          -0.0002    2.4309    0.9049 C.ar    1  UNL1       -0.0237
     35 C          -0.0002    0.9980   -0.9854 C.ar    1  UNL1       -0.0469
     36 C          -0.0003    2.3182   -0.4935 C.ar    1  UNL1       -0.0541
     37 H          -0.0001    0.7623   -2.0599 H       1  UNL1        0.0629
     38 H          -0.0003    3.1992   -1.1526 H       1  UNL1        0.0623
     39 H          -0.0003    3.3116    1.5560 H       1  UNL1        0.0693
@<TRIPOS>BOND
     1    26    23    1
     2    37    35    1
     3    24    23    1
     4    23    15    1
     5    23    25    1
     6    20    14    2
     7    38    36    1
     8    15    14   am
     9    15    13   am
    10    14     8    1
    11    35    36   ar
    12    35    32   ar
    13    19    13    2
    14    13     3    1
    15    12    10    1
    16     8    10   ar
    17     8     6   ar
    18    36    34   ar
    19    10    11   ar
    20     3     6   ar
    21     3     1   ar
    22     6     7   ar
    23    11    32    1
    24    11     9   ar
    25    32    33   ar
    26    31     1    1
    27     1     2   ar
    28     7     9   ar
    29     7     4   ar
    30     9    17    1
    31     2     4   ar
    32     2     5    1
    33     4    16    1
    34    17    22    2
    35    17    18   am
    36    29    27    1
    37    34    39    1
    38    34    33   ar
    39    16    18   am
    40    16    21    2
    41    18    27    1
    42    27    28    1
    43    27    30    1
