@<TRIPOS>MOLECULE
/home/robert/research/impropers_analysis/pndit/test_xyzs/Dimethyl_Naphthalene_Dicarboximide_Phi_25_Theta_50_Thiophene.xyz
 39 43 0 0 0
SMALL
GASTEIGER

@<TRIPOS>ATOM
      1 C           0.1959   -6.7414   -0.1663 C.ar    1  UNL1       -0.0483
      2 C           1.1960   -6.1556   -1.0057 C.ar    1  UNL1       -0.0483
      3 C          -0.6349   -5.7915    0.5302 C.ar    1  UNL1        0.0458
      4 C           1.4096   -4.8038   -1.1846 C.ar    1  UNL1        0.0458
      5 H           1.8685   -6.8215   -1.5702 H       1  UNL1        0.0625
      6 C          -0.4110   -4.3786    0.3433 C.ar    1  UNL1        0.0078
      7 C           0.6084   -3.8380   -0.5117 C.ar    1  UNL1        0.0084
      8 C          -1.2112   -3.4131    1.0154 C.ar    1  UNL1        0.0464
      9 C           0.8306   -2.4265   -0.6972 C.ar    1  UNL1        0.0540
     10 C          -0.9999   -2.0593    0.8390 C.ar    1  UNL1       -0.0400
     11 C          -0.0000   -1.4782   -0.0000 C.ar    1  UNL1        0.0022
     12 H          -1.6730   -1.3948    1.4043 H       1  UNL1        0.0632
     13 C          -1.7411   -6.1880    1.4561 C.2     1  UNL1        0.2535
     14 C          -2.3072   -3.7982    1.9349 C.2     1  UNL1        0.2535
     15 N          -2.4948   -5.1700    2.0901 N.am    1  UNL1       -0.2372
     16 C           2.5085   -4.4250   -2.1067 C.2     1  UNL1        0.2535
     17 C           1.9369   -2.0366   -1.6245 C.2     1  UNL1        0.2541
     18 N           2.6909   -3.0492   -2.2585 N.am    1  UNL1       -0.2372
     19 O          -2.0427   -7.3531    1.7054 O.2     1  UNL1       -0.2695
     20 O          -3.0138   -2.9869    2.5291 O.2     1  UNL1       -0.2695
     21 O           3.2069   -5.2489   -2.6937 O.2     1  UNL1       -0.2695
     22 O           2.2541   -0.8788   -1.8888 O.2     1  UNL1       -0.2695
     23 C          -3.5775   -5.5638    2.9973 C.3     1  UNL1        0.0115
     24 H          -3.6129   -6.6641    3.0255 H       1  UNL1        0.0434
     25 H          -4.5368   -5.1471    2.6351 H       1  UNL1        0.0434
     26 H          -3.3878   -5.1488    4.0057 H       1  UNL1        0.0434
     27 C           3.7569   -2.5875   -3.1523 C.3     1  UNL1        0.0115
     28 H           4.2485   -3.4833   -3.5662 H       1  UNL1        0.0434
     29 H           4.4788   -1.9650   -2.5904 H       1  UNL1        0.0434
     30 H           3.3296   -1.9629   -3.9597 H       1  UNL1        0.0434
     31 H           0.0532   -7.8223   -0.0470 H       1  UNL1        0.0625
     32 C           0.0000    0.0000    0.0000 C.ar    1  UNL1        0.0201
     33 S           0.3350    0.7189    1.5805 S.2     1  UNL1       -0.0966
     34 C           1.0271    2.2032    0.9049 C.ar    1  UNL1       -0.0237
     35 C           0.4216    0.9046   -0.9854 C.ar    1  UNL1       -0.0469
     36 C           0.9795    2.1011   -0.4935 C.ar    1  UNL1       -0.0541
     37 H           0.3220    0.6910   -2.0599 H       1  UNL1        0.0629
     38 H           1.3517    2.8996   -1.1526 H       1  UNL1        0.0623
     39 H           1.3992    3.0014    1.5560 H       1  UNL1        0.0693
@<TRIPOS>BOND
     1    30    27    1
     2    28    27    1
     3    27    29    1
     4    27    18    1
     5    21    16    2
     6    18    16   am
     7    18    17   am
     8    16     4    1
     9    37    35    1
    10    22    17    2
    11    17     9    1
    12     5     2    1
    13     4     2   ar
    14     4     7   ar
    15    38    36    1
    16     2     1   ar
    17    35    36   ar
    18    35    32   ar
    19     9     7   ar
    20     9    11   ar
    21     7     6   ar
    22    36    34   ar
    23     1    31    1
    24     1     3   ar
    25    11    32    1
    26    11    10   ar
    27    32    33   ar
    28     6     3   ar
    29     6     8   ar
    30     3    13    1
    31    10     8   ar
    32    10    12    1
    33    34    39    1
    34    34    33   ar
    35     8    14    1
    36    13    19    2
    37    13    15   am
    38    14    15   am
    39    14    20    2
    40    15    23    1
    41    25    23    1
    42    23    24    1
    43    23    26    1
